 xtb: 6.7.1pre (5071a88)
          09172600403D

 20 20  0     0  0            999 V2000
   -1.1987   -0.1580   -1.3159 C   0  0  0  0  0  0  0  0  0  0  0  0
   -1.2163    0.8646   -0.1757 C   0  0  0  0  0  0  0  0  0  0  0  0
   -0.3500    0.3464    0.9800 C   0  0  0  0  0  0  0  0  0  0  0  0
    1.0455    0.0033    0.4563 C   0  0  0  0  0  0  0  0  0  0  0  0
    0.9190   -0.9761   -0.7224 C   0  0  0  0  0  0  0  0  0  0  0  0
    0.1121   -0.4492   -1.7411 O   0  0  0  0  0  0  0  0  0  0  0  0
    2.1878   -1.2031   -1.2405 O   0  0  0  0  0  0  0  0  0  0  0  0
    1.7896   -0.5564    1.5092 O   0  0  0  0  0  0  0  0  0  0  0  0
   -0.3037    1.3395    1.9751 O   0  0  0  0  0  0  0  0  0  0  0  0
   -2.5440    1.0558    0.2299 O   0  0  0  0  0  0  0  0  0  0  0  0
   -1.7203    0.2380   -2.1868 H   0  0  0  0  0  0  0  0  0  0  0  0
   -1.7063   -1.0716   -0.9758 H   0  0  0  0  0  0  0  0  0  0  0  0
   -0.7798    1.8133   -0.5270 H   0  0  0  0  0  0  0  0  0  0  0  0
   -0.8036   -0.5719    1.3894 H   0  0  0  0  0  0  0  0  0  0  0  0
    1.5314    0.9190    0.0835 H   0  0  0  0  0  0  0  0  0  0  0  0
    0.4776   -1.9268   -0.3482 H   0  0  0  0  0  0  0  0  0  0  0  0
    2.0893   -1.3995   -2.1794 H   0  0  0  0  0  0  0  0  0  0  0  0
    2.6044   -0.9120    1.1347 H   0  0  0  0  0  0  0  0  0  0  0  0
    0.3839    1.0841    2.6018 H   0  0  0  0  0  0  0  0  0  0  0  0
   -2.5177    1.5608    1.0529 H   0  0  0  0  0  0  0  0  0  0  0  0
  1  2  1  0  0  0  0
  2  3  1  0  0  0  0
  3  4  1  0  0  0  0
  4  5  1  0  0  0  0
  1  6  1  0  0  0  0
  5  6  1  0  0  0  0
  5  7  1  0  0  0  0
  4  8  1  0  0  0  0
  3  9  1  0  0  0  0
  2 10  1  0  0  0  0
  1 11  1  0  0  0  0
  1 12  1  0  0  0  0
  2 13  1  0  0  0  0
  3 14  1  0  0  0  0
  4 15  1  0  0  0  0
  5 16  1  0  0  0  0
  7 17  1  0  0  0  0
  8 18  1  0  0  0  0
  9 19  1  0  0  0  0
 10 20  1  0  0  0  0
M  END
