 xtb: 6.7.1pre (5071a88)
          09172600403D

 26 25  0     0  0            999 V2000
   -3.1692   -0.5211    0.3106 C   0  0  0  0  0  0  0  0  0  0  0  0
   -1.8440    0.1667    0.6599 C   0  0  0  0  0  0  0  0  0  0  0  0
   -0.6816   -0.4230   -0.1456 C   0  0  0  0  0  0  0  0  0  0  0  0
    0.6033    0.3922    0.1146 C   0  0  0  0  0  0  0  0  0  0  0  0
    1.8437   -0.3873   -0.3704 C   0  0  0  0  0  0  0  0  0  0  0  0
    3.1067    0.4595   -0.2018 C   0  0  0  0  0  0  0  0  0  0  0  0
    4.1743   -0.2582   -0.7934 O   0  0  0  0  0  0  0  0  0  0  0  0
    1.6809   -0.7382   -1.7314 O   0  0  0  0  0  0  0  0  0  0  0  0
    0.5068    1.6407   -0.5146 O   0  0  0  0  0  0  0  0  0  0  0  0
   -1.0125   -0.3675   -1.5119 O   0  0  0  0  0  0  0  0  0  0  0  0
   -1.5648    0.0062    2.0306 O   0  0  0  0  0  0  0  0  0  0  0  0
   -4.2067   -0.0372    1.1347 O   0  0  0  0  0  0  0  0  0  0  0  0
   -3.3917   -0.3856   -0.7519 H   0  0  0  0  0  0  0  0  0  0  0  0
   -3.0922   -1.5888    0.5278 H   0  0  0  0  0  0  0  0  0  0  0  0
   -1.9213    1.2415    0.4199 H   0  0  0  0  0  0  0  0  0  0  0  0
   -0.5249   -1.4603    0.1834 H   0  0  0  0  0  0  0  0  0  0  0  0
    0.7020    0.5742    1.1880 H   0  0  0  0  0  0  0  0  0  0  0  0
    1.9464   -1.3039    0.2308 H   0  0  0  0  0  0  0  0  0  0  0  0
    2.9575    1.4226   -0.7050 H   0  0  0  0  0  0  0  0  0  0  0  0
    3.2865    0.6353    0.8646 H   0  0  0  0  0  0  0  0  0  0  0  0
    4.9846    0.2493   -0.6930 H   0  0  0  0  0  0  0  0  0  0  0  0
    2.5634   -0.9536   -2.0612 H   0  0  0  0  0  0  0  0  0  0  0  0
    0.0788    1.4817   -1.3710 H   0  0  0  0  0  0  0  0  0  0  0  0
   -0.2328   -0.6856   -1.9955 H   0  0  0  0  0  0  0  0  0  0  0  0
   -2.4201   -0.0461    2.4817 H   0  0  0  0  0  0  0  0  0  0  0  0
   -4.3730    0.8864    0.9134 H   0  0  0  0  0  0  0  0  0  0  0  0
  1  2  1  0  0  0  0
  2  3  1  0  0  0  0
  3  4  1  0  0  0  0
  4  5  1  0  0  0  0
  5  6  1  0  0  0  0
  6  7  1  0  0  0  0
  5  8  1  0  0  0  0
  4  9  1  0  0  0  0
  3 10  1  0  0  0  0
  2 11  1  0  0  0  0
  1 12  1  0  0  0  0
  1 13  1  0  0  0  0
  1 14  1  0  0  0  0
  2 15  1  0  0  0  0
  3 16  1  0  0  0  0
  4 17  1  0  0  0  0
  5 18  1  0  0  0  0
  6 19  1  0  0  0  0
  6 20  1  0  0  0  0
  7 21  1  0  0  0  0
  8 22  1  0  0  0  0
  9 23  1  0  0  0  0
 10 24  1  0  0  0  0
 11 25  1  0  0  0  0
 12 26  1  0  0  0  0
M  END
