 xtb: 6.7.1pre (5071a88)
          09172600403D

 17 17  0     0  0            999 V2000
   -2.6550   -0.1578    0.1529 C   0  0  0  0  0  0  0  0  0  0  0  0
   -1.5854    0.7433    0.0231 O   0  0  0  0  0  0  0  0  0  0  0  0
   -0.3048    0.2316   -0.0028 C   0  0  0  0  0  0  0  0  0  0  0  0
    0.0332   -1.1062    0.0883 C   0  0  0  0  0  0  0  0  0  0  0  0
    1.3675   -1.4873    0.0489 C   0  0  0  0  0  0  0  0  0  0  0  0
    2.3619   -0.5386   -0.0807 C   0  0  0  0  0  0  0  0  0  0  0  0
    2.0328    0.8041   -0.1727 C   0  0  0  0  0  0  0  0  0  0  0  0
    0.7069    1.1984   -0.1348 C   0  0  0  0  0  0  0  0  0  0  0  0
    0.3863    2.5161   -0.2252 O   0  0  0  0  0  0  0  0  0  0  0  0
   -2.5967   -0.7154    1.0930 H   0  0  0  0  0  0  0  0  0  0  0  0
   -3.5573    0.4521    0.1508 H   0  0  0  0  0  0  0  0  0  0  0  0
   -2.6906   -0.8601   -0.6859 H   0  0  0  0  0  0  0  0  0  0  0  0
   -0.7301   -1.8615    0.1900 H   0  0  0  0  0  0  0  0  0  0  0  0
    1.6186   -2.5345    0.1209 H   0  0  0  0  0  0  0  0  0  0  0  0
    3.3982   -0.8377   -0.1111 H   0  0  0  0  0  0  0  0  0  0  0  0
    2.7912    1.5635   -0.2745 H   0  0  0  0  0  0  0  0  0  0  0  0
   -0.5767    2.5900   -0.1804 H   0  0  0  0  0  0  0  0  0  0  0  0
  1  2  1  0  0  0  0
  2  3  1  0  0  0  0
  3  4  4  0  0  0  0
  4  5  4  0  0  0  0
  5  6  4  0  0  0  0
  6  7  4  0  0  0  0
  3  8  4  0  0  0  0
  7  8  4  0  0  0  0
  8  9  1  0  0  0  0
  1 10  1  0  0  0  0
  1 11  1  0  0  0  0
  1 12  1  0  0  0  0
  4 13  1  0  0  0  0
  5 14  1  0  0  0  0
  6 15  1  0  0  0  0
  7 16  1  0  0  0  0
  9 17  1  0  0  0  0
M  END
