 xtb: 6.7.1pre (5071a88)
          09172600403D

 18 18  0     0  0            999 V2000
   -0.6957   -1.1185   -0.6465 C   0  0  0  0  0  0  0  0  0  0  0  0
    0.5510   -1.3446    0.2037 C   0  0  0  0  0  0  0  0  0  0  0  0
    1.4536   -0.1150    0.1643 C   0  0  0  0  0  0  0  0  0  0  0  0
    0.6957    1.1185    0.6465 C   0  0  0  0  0  0  0  0  0  0  0  0
   -0.5510    1.3446   -0.2037 C   0  0  0  0  0  0  0  0  0  0  0  0
   -1.4536    0.1150   -0.1643 C   0  0  0  0  0  0  0  0  0  0  0  0
   -0.4013   -0.9771   -1.6893 H   0  0  0  0  0  0  0  0  0  0  0  0
   -1.3438   -1.9964   -0.5982 H   0  0  0  0  0  0  0  0  0  0  0  0
    1.0962   -2.2186   -0.1597 H   0  0  0  0  0  0  0  0  0  0  0  0
    0.2533   -1.5416    1.2364 H   0  0  0  0  0  0  0  0  0  0  0  0
    1.7964    0.0491   -0.8602 H   0  0  0  0  0  0  0  0  0  0  0  0
    2.3342   -0.2791    0.7894 H   0  0  0  0  0  0  0  0  0  0  0  0
    1.3438    1.9964    0.5982 H   0  0  0  0  0  0  0  0  0  0  0  0
    0.4013    0.9771    1.6893 H   0  0  0  0  0  0  0  0  0  0  0  0
   -0.2533    1.5416   -1.2364 H   0  0  0  0  0  0  0  0  0  0  0  0
   -1.0962    2.2186    0.1597 H   0  0  0  0  0  0  0  0  0  0  0  0
   -2.3342    0.2791   -0.7894 H   0  0  0  0  0  0  0  0  0  0  0  0
   -1.7964   -0.0491    0.8602 H   0  0  0  0  0  0  0  0  0  0  0  0
  1  2  1  0  0  0  0
  2  3  1  0  0  0  0
  3  4  1  0  0  0  0
  4  5  1  0  0  0  0
  1  6  1  0  0  0  0
  5  6  1  0  0  0  0
  1  7  1  0  0  0  0
  1  8  1  0  0  0  0
  2  9  1  0  0  0  0
  2 10  1  0  0  0  0
  3 11  1  0  0  0  0
  3 12  1  0  0  0  0
  4 13  1  0  0  0  0
  4 14  1  0  0  0  0
  5 15  1  0  0  0  0
  5 16  1  0  0  0  0
  6 17  1  0  0  0  0
  6 18  1  0  0  0  0
M  END
