 xtb: 6.7.1pre (5071a88)
          09172600403D

 24 24  0     0  0            999 V2000
    2.9699   -0.4479   -0.1917 C   0  0  0  0  0  0  0  0  0  0  0  0
    1.9100    0.6154    0.0728 C   0  0  0  0  0  0  0  0  0  0  0  0
    0.5113    0.0406    0.3223 C   0  0  0  0  0  0  0  0  0  0  0  0
   -0.0801   -0.5997   -0.9347 C   0  0  0  0  0  0  0  0  0  0  0  0
   -1.4780   -1.1502   -0.6660 C   0  0  0  0  0  0  0  0  0  0  0  0
   -2.4048   -0.0467   -0.1679 C   0  0  0  0  0  0  0  0  0  0  0  0
   -1.8284    0.5923    1.0908 C   0  0  0  0  0  0  0  0  0  0  0  0
   -0.4308    1.1402    0.8193 C   0  0  0  0  0  0  0  0  0  0  0  0
    3.0002   -1.1669    0.6243 H   0  0  0  0  0  0  0  0  0  0  0  0
    2.7682   -0.9840   -1.1153 H   0  0  0  0  0  0  0  0  0  0  0  0
    3.9513    0.0134   -0.2775 H   0  0  0  0  0  0  0  0  0  0  0  0
    1.8685    1.3047   -0.7740 H   0  0  0  0  0  0  0  0  0  0  0  0
    2.2080    1.1932    0.9517 H   0  0  0  0  0  0  0  0  0  0  0  0
    0.5869   -0.7276    1.1010 H   0  0  0  0  0  0  0  0  0  0  0  0
    0.5638   -1.4095   -1.2813 H   0  0  0  0  0  0  0  0  0  0  0  0
   -0.1327    0.1508   -1.7275 H   0  0  0  0  0  0  0  0  0  0  0  0
   -1.4172   -1.9384    0.0885 H   0  0  0  0  0  0  0  0  0  0  0  0
   -1.8820   -1.5932   -1.5792 H   0  0  0  0  0  0  0  0  0  0  0  0
   -3.3961   -0.4555    0.0396 H   0  0  0  0  0  0  0  0  0  0  0  0
   -2.5120    0.7146   -0.9443 H   0  0  0  0  0  0  0  0  0  0  0  0
   -1.7760   -0.1566    1.8848 H   0  0  0  0  0  0  0  0  0  0  0  0
   -2.4815    1.3978    1.4342 H   0  0  0  0  0  0  0  0  0  0  0  0
   -0.4914    1.9272    0.0633 H   0  0  0  0  0  0  0  0  0  0  0  0
   -0.0272    1.5861    1.7315 H   0  0  0  0  0  0  0  0  0  0  0  0
  1  2  1  0  0  0  0
  2  3  1  0  0  0  0
  3  4  1  0  0  0  0
  4  5  1  0  0  0  0
  5  6  1  0  0  0  0
  6  7  1  0  0  0  0
  3  8  1  0  0  0  0
  7  8  1  0  0  0  0
  1  9  1  0  0  0  0
  1 10  1  0  0  0  0
  1 11  1  0  0  0  0
  2 12  1  0  0  0  0
  2 13  1  0  0  0  0
  3 14  1  0  0  0  0
  4 15  1  0  0  0  0
  4 16  1  0  0  0  0
  5 17  1  0  0  0  0
  5 18  1  0  0  0  0
  6 19  1  0  0  0  0
  6 20  1  0  0  0  0
  7 21  1  0  0  0  0
  7 22  1  0  0  0  0
  8 23  1  0  0  0  0
  8 24  1  0  0  0  0
M  END
