 xtb: 6.7.1pre (5071a88)
          09172600403D

 15 15  0     0  0            999 V2000
    0.2238   -1.3253    0.5815 C   0  0  0  0  0  0  0  0  0  0  0  0
   -0.6648   -0.4180    0.0621 C   0  0  0  0  0  0  0  0  0  0  0  0
   -0.0102    0.6298   -0.4620 O   0  0  0  0  0  0  0  0  0  0  0  0
    1.3185    0.4098   -0.2888 C   0  0  0  0  0  0  0  0  0  0  0  0
    1.5048   -0.7961    0.3539 C   0  0  0  0  0  0  0  0  0  0  0  0
    2.2615    1.3964   -0.7668 C   0  0  0  0  0  0  0  0  0  0  0  0
    3.4616    1.3110   -0.6773 O   0  0  0  0  0  0  0  0  0  0  0  0
   -2.1617   -0.4091    0.0155 C   0  0  0  0  0  0  0  0  0  0  0  0
   -2.7201    0.5966    0.8265 O   0  0  0  0  0  0  0  0  0  0  0  0
   -0.0202   -2.2497    1.0627 H   0  0  0  0  0  0  0  0  0  0  0  0
    2.4499   -1.2226    0.6201 H   0  0  0  0  0  0  0  0  0  0  0  0
    1.7712    2.2687   -1.2406 H   0  0  0  0  0  0  0  0  0  0  0  0
   -2.5416   -1.3562    0.4019 H   0  0  0  0  0  0  0  0  0  0  0  0
   -2.4903   -0.2891   -1.0287 H   0  0  0  0  0  0  0  0  0  0  0  0
   -2.3823    1.4537    0.5398 H   0  0  0  0  0  0  0  0  0  0  0  0
  1  2  2  0  0  0  0
  2  3  1  0  0  0  0
  3  4  1  0  0  0  0
  1  5  4  0  0  0  0
  4  5  4  0  0  0  0
  4  6  1  0  0  0  0
  6  7  2  0  0  0  0
  2  8  1  0  0  0  0
  8  9  1  0  0  0  0
  1 10  1  0  0  0  0
  5 11  1  0  0  0  0
  6 12  1  0  0  0  0
  8 13  1  0  0  0  0
  8 14  1  0  0  0  0
  9 15  1  0  0  0  0
M  END
