 xtb: 6.7.1pre (5071a88)
          09172600403D

 14 14  0     0  0            999 V2000
   -1.7051    0.5881    0.1289 C   0  0  0  0  0  0  0  0  0  0  0  0
   -1.4948   -0.7379    0.4573 C   0  0  0  0  0  0  0  0  0  0  0  0
   -0.2186   -1.2743    0.3873 C   0  0  0  0  0  0  0  0  0  0  0  0
    0.8436   -0.4843   -0.0106 C   0  0  0  0  0  0  0  0  0  0  0  0
    0.6342    0.8604   -0.3444 C   0  0  0  0  0  0  0  0  0  0  0  0
   -0.6460    1.3856   -0.2706 C   0  0  0  0  0  0  0  0  0  0  0  0
    1.6742    1.6411   -0.7360 O   0  0  0  0  0  0  0  0  0  0  0  0
    2.1356   -0.9516   -0.1023 O   0  0  0  0  0  0  0  0  0  0  0  0
   -2.6975    1.0082    0.1825 H   0  0  0  0  0  0  0  0  0  0  0  0
   -2.3183   -1.3616    0.7689 H   0  0  0  0  0  0  0  0  0  0  0  0
   -0.0455   -2.3115    0.6428 H   0  0  0  0  0  0  0  0  0  0  0  0
   -0.7905    2.4217   -0.5307 H   0  0  0  0  0  0  0  0  0  0  0  0
    2.4735    1.0968   -0.7226 H   0  0  0  0  0  0  0  0  0  0  0  0
    2.1553   -1.8806    0.1495 H   0  0  0  0  0  0  0  0  0  0  0  0
  1  2  4  0  0  0  0
  2  3  4  0  0  0  0
  3  4  4  0  0  0  0
  4  5  4  0  0  0  0
  1  6  4  0  0  0  0
  5  6  4  0  0  0  0
  5  7  1  0  0  0  0
  4  8  1  0  0  0  0
  1  9  1  0  0  0  0
  2 10  1  0  0  0  0
  3 11  1  0  0  0  0
  6 12  1  0  0  0  0
  7 13  1  0  0  0  0
  8 14  1  0  0  0  0
M  END
