 xtb: 6.7.1pre (5071a88)
          09172600403D

 27 27  0     0  0            999 V2000
    3.8236   -0.0625   -0.3978 C   0  0  0  0  0  0  0  0  0  0  0  0
    2.4419   -0.5055    0.0687 C   0  0  0  0  0  0  0  0  0  0  0  0
    1.3694    0.5130   -0.3126 C   0  0  0  0  0  0  0  0  0  0  0  0
   -0.0211    0.1885    0.2436 C   0  0  0  0  0  0  0  0  0  0  0  0
   -0.9622    1.3796    0.0446 C   0  0  0  0  0  0  0  0  0  0  0  0
   -2.3484    1.0904    0.6121 C   0  0  0  0  0  0  0  0  0  0  0  0
   -2.9455   -0.1500   -0.0437 C   0  0  0  0  0  0  0  0  0  0  0  0
   -2.0182   -1.3446    0.1517 C   0  0  0  0  0  0  0  0  0  0  0  0
   -0.6321   -1.0497   -0.4148 C   0  0  0  0  0  0  0  0  0  0  0  0
    4.0959    0.8863    0.0599 H   0  0  0  0  0  0  0  0  0  0  0  0
    3.8385    0.0634   -1.4783 H   0  0  0  0  0  0  0  0  0  0  0  0
    4.5750   -0.8014   -0.1282 H   0  0  0  0  0  0  0  0  0  0  0  0
    2.4497   -0.6311    1.1540 H   0  0  0  0  0  0  0  0  0  0  0  0
    2.2106   -1.4744   -0.3768 H   0  0  0  0  0  0  0  0  0  0  0  0
    1.3131    0.5873   -1.4015 H   0  0  0  0  0  0  0  0  0  0  0  0
    1.6742    1.4921    0.0668 H   0  0  0  0  0  0  0  0  0  0  0  0
    0.0724   -0.0009    1.3196 H   0  0  0  0  0  0  0  0  0  0  0  0
   -1.0458    1.5944   -1.0236 H   0  0  0  0  0  0  0  0  0  0  0  0
   -0.5441    2.2647    0.5300 H   0  0  0  0  0  0  0  0  0  0  0  0
   -2.2715    0.9278    1.6899 H   0  0  0  0  0  0  0  0  0  0  0  0
   -3.0020    1.9505    0.4499 H   0  0  0  0  0  0  0  0  0  0  0  0
   -3.0794    0.0340   -1.1123 H   0  0  0  0  0  0  0  0  0  0  0  0
   -3.9270   -0.3642    0.3848 H   0  0  0  0  0  0  0  0  0  0  0  0
   -1.9329   -1.5647    1.2187 H   0  0  0  0  0  0  0  0  0  0  0  0
   -2.4375   -2.2264   -0.3381 H   0  0  0  0  0  0  0  0  0  0  0  0
    0.0127   -1.9156   -0.2564 H   0  0  0  0  0  0  0  0  0  0  0  0
   -0.7093   -0.8808   -1.4917 H   0  0  0  0  0  0  0  0  0  0  0  0
  1  2  1  0  0  0  0
  2  3  1  0  0  0  0
  3  4  1  0  0  0  0
  4  5  1  0  0  0  0
  5  6  1  0  0  0  0
  6  7  1  0  0  0  0
  7  8  1  0  0  0  0
  4  9  1  0  0  0  0
  8  9  1  0  0  0  0
  1 10  1  0  0  0  0
  1 11  1  0  0  0  0
  1 12  1  0  0  0  0
  2 13  1  0  0  0  0
  2 14  1  0  0  0  0
  3 15  1  0  0  0  0
  3 16  1  0  0  0  0
  4 17  1  0  0  0  0
  5 18  1  0  0  0  0
  5 19  1  0  0  0  0
  6 20  1  0  0  0  0
  6 21  1  0  0  0  0
  7 22  1  0  0  0  0
  7 23  1  0  0  0  0
  8 24  1  0  0  0  0
  8 25  1  0  0  0  0
  9 26  1  0  0  0  0
  9 27  1  0  0  0  0
M  END
