 xtb: 6.7.1pre (5071a88)
          09172600403D

 12 12  0     0  0            999 V2000
   -1.9107   -0.0228   -0.0431 C   0  0  0  0  0  0  0  0  0  0  0  0
   -0.4239   -0.0371   -0.0182 C   0  0  0  0  0  0  0  0  0  0  0  0
    0.4873    0.9373    0.2612 C   0  0  0  0  0  0  0  0  0  0  0  0
    1.7659    0.3394    0.1253 C   0  0  0  0  0  0  0  0  0  0  0  0
    1.5358   -0.9519   -0.2259 C   0  0  0  0  0  0  0  0  0  0  0  0
    0.2143   -1.1901   -0.3155 O   0  0  0  0  0  0  0  0  0  0  0  0
   -2.2716    0.9679    0.2160 H   0  0  0  0  0  0  0  0  0  0  0  0
   -2.2772   -0.2889   -1.0339 H   0  0  0  0  0  0  0  0  0  0  0  0
   -2.3102   -0.7458    0.6672 H   0  0  0  0  0  0  0  0  0  0  0  0
    0.2781    1.9525    0.5298 H   0  0  0  0  0  0  0  0  0  0  0  0
    2.7166    0.8102    0.2702 H   0  0  0  0  0  0  0  0  0  0  0  0
    2.1955   -1.7707   -0.4331 H   0  0  0  0  0  0  0  0  0  0  0  0
  1  2  1  0  0  0  0
  2  3  2  0  0  0  0
  3  4  4  0  0  0  0
  4  5  2  0  0  0  0
  2  6  1  0  0  0  0
  5  6  1  0  0  0  0
  1  7  1  0  0  0  0
  1  8  1  0  0  0  0
  1  9  1  0  0  0  0
  3 10  1  0  0  0  0
  4 11  1  0  0  0  0
  5 12  1  0  0  0  0
M  END
