 xtb: 6.7.1pre (5071a88)
          09172600403D

 11 11  0     0  0            999 V2000
   -1.4998    0.1118   -0.6052 C   0  0  0  0  0  0  0  0  0  0  0  0
   -1.4582   -0.5259    0.6047 C   0  0  0  0  0  0  0  0  0  0  0  0
   -0.2122   -0.5976    1.0679 O   0  0  0  0  0  0  0  0  0  0  0  0
    0.5921    0.0008    0.1545 C   0  0  0  0  0  0  0  0  0  0  0  0
   -0.1700    0.4560   -0.9022 C   0  0  0  0  0  0  0  0  0  0  0  0
    2.0160    0.0671    0.4049 C   0  0  0  0  0  0  0  0  0  0  0  0
    2.8283    0.5719   -0.3305 O   0  0  0  0  0  0  0  0  0  0  0  0
   -2.3686    0.3062   -1.1996 H   0  0  0  0  0  0  0  0  0  0  0  0
   -2.2347   -0.9555    1.2080 H   0  0  0  0  0  0  0  0  0  0  0  0
    0.2005    0.9676   -1.7665 H   0  0  0  0  0  0  0  0  0  0  0  0
    2.3064   -0.4025    1.3641 H   0  0  0  0  0  0  0  0  0  0  0  0
  1  2  2  0  0  0  0
  2  3  1  0  0  0  0
  3  4  1  0  0  0  0
  1  5  4  0  0  0  0
  4  5  4  0  0  0  0
  4  6  1  0  0  0  0
  6  7  2  0  0  0  0
  1  8  1  0  0  0  0
  2  9  1  0  0  0  0
  5 10  1  0  0  0  0
  6 11  1  0  0  0  0
M  END
