 xtb: 6.7.1pre (5071a88)
          09172600403D

 26 25  0     0  0            999 V2000
    4.1368   -0.3632    0.0438 C   0  0  0  0  0  0  0  0  0  0  0  0
    2.8411    0.2818   -0.4325 C   0  0  0  0  0  0  0  0  0  0  0  0
    1.6123   -0.4187    0.1424 C   0  0  0  0  0  0  0  0  0  0  0  0
    0.3091    0.2209   -0.3319 C   0  0  0  0  0  0  0  0  0  0  0  0
   -0.9110   -0.4673    0.2765 C   0  0  0  0  0  0  0  0  0  0  0  0
   -2.2489    0.0381   -0.2744 C   0  0  0  0  0  0  0  0  0  0  0  0
   -2.5084    1.4930    0.1090 C   0  0  0  0  0  0  0  0  0  0  0  0
   -3.3866   -0.8435    0.2387 C   0  0  0  0  0  0  0  0  0  0  0  0
    4.2064   -0.3225    1.1288 H   0  0  0  0  0  0  0  0  0  0  0  0
    4.9987    0.1513   -0.3748 H   0  0  0  0  0  0  0  0  0  0  0  0
    4.1782   -1.4066   -0.2616 H   0  0  0  0  0  0  0  0  0  0  0  0
    2.8289    1.3330   -0.1350 H   0  0  0  0  0  0  0  0  0  0  0  0
    2.7982    0.2472   -1.5237 H   0  0  0  0  0  0  0  0  0  0  0  0
    1.6276   -1.4709   -0.1523 H   0  0  0  0  0  0  0  0  0  0  0  0
    1.6553   -0.3818    1.2337 H   0  0  0  0  0  0  0  0  0  0  0  0
    0.3152    1.2774   -0.0588 H   0  0  0  0  0  0  0  0  0  0  0  0
    0.2532    0.1590   -1.4216 H   0  0  0  0  0  0  0  0  0  0  0  0
   -0.8976   -0.3336    1.3609 H   0  0  0  0  0  0  0  0  0  0  0  0
   -0.8380   -1.5398    0.0775 H   0  0  0  0  0  0  0  0  0  0  0  0
   -2.2213   -0.0340   -1.3680 H   0  0  0  0  0  0  0  0  0  0  0  0
   -3.4887    1.8065   -0.2436 H   0  0  0  0  0  0  0  0  0  0  0  0
   -1.7656    2.1533   -0.3299 H   0  0  0  0  0  0  0  0  0  0  0  0
   -2.4806    1.6099    1.1905 H   0  0  0  0  0  0  0  0  0  0  0  0
   -4.3403   -0.5136   -0.1673 H   0  0  0  0  0  0  0  0  0  0  0  0
   -3.4416   -0.7952    1.3243 H   0  0  0  0  0  0  0  0  0  0  0  0
   -3.2322   -1.8807   -0.0506 H   0  0  0  0  0  0  0  0  0  0  0  0
  1  2  1  0  0  0  0
  2  3  1  0  0  0  0
  3  4  1  0  0  0  0
  4  5  1  0  0  0  0
  5  6  1  0  0  0  0
  6  7  1  0  0  0  0
  6  8  1  0  0  0  0
  1  9  1  0  0  0  0
  1 10  1  0  0  0  0
  1 11  1  0  0  0  0
  2 12  1  0  0  0  0
  2 13  1  0  0  0  0
  3 14  1  0  0  0  0
  3 15  1  0  0  0  0
  4 16  1  0  0  0  0
  4 17  1  0  0  0  0
  5 18  1  0  0  0  0
  5 19  1  0  0  0  0
  6 20  1  0  0  0  0
  7 21  1  0  0  0  0
  7 22  1  0  0  0  0
  7 23  1  0  0  0  0
  8 24  1  0  0  0  0
  8 25  1  0  0  0  0
  8 26  1  0  0  0  0
M  END
