 xtb: 6.7.1pre (5071a88)
          09172600403D

 13 13  0     0  0            999 V2000
   -1.6273    0.2812    0.0211 C   0  0  0  0  0  0  0  0  0  0  0  0
   -0.6994    1.2974    0.1637 C   0  0  0  0  0  0  0  0  0  0  0  0
    0.6548    1.0151    0.1398 C   0  0  0  0  0  0  0  0  0  0  0  0
    1.0885   -0.2943   -0.0281 C   0  0  0  0  0  0  0  0  0  0  0  0
    0.1556   -1.3167   -0.1715 C   0  0  0  0  0  0  0  0  0  0  0  0
   -1.1938   -1.0242   -0.1462 C   0  0  0  0  0  0  0  0  0  0  0  0
    2.4101   -0.6196   -0.0580 O   0  0  0  0  0  0  0  0  0  0  0  0
   -2.6831    0.5048    0.0402 H   0  0  0  0  0  0  0  0  0  0  0  0
   -1.0275    2.3181    0.2946 H   0  0  0  0  0  0  0  0  0  0  0  0
    1.3803    1.8110    0.2514 H   0  0  0  0  0  0  0  0  0  0  0  0
    0.5102   -2.3269   -0.3008 H   0  0  0  0  0  0  0  0  0  0  0  0
   -1.9129   -1.8220   -0.2580 H   0  0  0  0  0  0  0  0  0  0  0  0
    2.9446    0.1761    0.0518 H   0  0  0  0  0  0  0  0  0  0  0  0
  1  2  4  0  0  0  0
  2  3  4  0  0  0  0
  3  4  4  0  0  0  0
  4  5  4  0  0  0  0
  1  6  4  0  0  0  0
  5  6  4  0  0  0  0
  4  7  1  0  0  0  0
  1  8  1  0  0  0  0
  2  9  1  0  0  0  0
  3 10  1  0  0  0  0
  5 11  1  0  0  0  0
  6 12  1  0  0  0  0
  7 13  1  0  0  0  0
M  END
