 xtb: 6.7.1pre (5071a88)
          09172600403D

 16 15  0     0  0            999 V2000
   -2.1935    0.7545   -0.4668 C   0  0  0  0  0  0  0  0  0  0  0  0
   -1.2225   -0.3768   -0.2897 C   0  0  0  0  0  0  0  0  0  0  0  0
   -1.1623   -1.3234   -1.0315 O   0  0  0  0  0  0  0  0  0  0  0  0
   -0.2976   -0.2377    0.9118 C   0  0  0  0  0  0  0  0  0  0  0  0
    1.0992   -0.7363    0.5546 C   0  0  0  0  0  0  0  0  0  0  0  0
    1.7229    0.1602   -0.4857 C   0  0  0  0  0  0  0  0  0  0  0  0
    1.2191    1.1497   -0.9456 O   0  0  0  0  0  0  0  0  0  0  0  0
    2.9350   -0.2703   -0.8508 O   0  0  0  0  0  0  0  0  0  0  0  0
   -2.6796    0.9955    0.4753 H   0  0  0  0  0  0  0  0  0  0  0  0
   -2.9344    0.5093   -1.2228 H   0  0  0  0  0  0  0  0  0  0  0  0
   -1.6247    1.6247   -0.7917 H   0  0  0  0  0  0  0  0  0  0  0  0
   -0.7095   -0.8455    1.7205 H   0  0  0  0  0  0  0  0  0  0  0  0
   -0.2600    0.8014    1.2365 H   0  0  0  0  0  0  0  0  0  0  0  0
    1.0412   -1.7419    0.1322 H   0  0  0  0  0  0  0  0  0  0  0  0
    1.7561   -0.7713    1.4249 H   0  0  0  0  0  0  0  0  0  0  0  0
    3.3107    0.3077   -1.5336 H   0  0  0  0  0  0  0  0  0  0  0  0
  1  2  1  0  0  0  0
  2  3  2  0  0  0  0
  2  4  1  0  0  0  0
  4  5  1  0  0  0  0
  5  6  1  0  0  0  0
  6  7  2  0  0  0  0
  6  8  1  0  0  0  0
  1  9  1  0  0  0  0
  1 10  1  0  0  0  0
  1 11  1  0  0  0  0
  4 12  1  0  0  0  0
  4 13  1  0  0  0  0
  5 14  1  0  0  0  0
  5 15  1  0  0  0  0
  8 16  1  0  0  0  0
M  END
