 xtb: 6.7.1pre (5071a88)
          09172600113D

 24 24  0     0  0            999 V2000
    2.5688   -0.4951    0.1280 C   0  0  0  0  0  0  0  0  0  0  0  0
    1.1379   -0.1932   -0.3273 C   0  0  0  0  0  0  0  0  0  0  0  0
    0.5967    1.0797    0.3336 C   0  0  0  0  0  0  0  0  0  0  0  0
   -0.8779    1.2698   -0.0431 C   0  0  0  0  0  0  0  0  0  0  0  0
   -1.6639    0.0050    0.3023 C   0  0  0  0  0  0  0  0  0  0  0  0
   -0.9959   -1.2012   -0.3739 C   0  0  0  0  0  0  0  0  0  0  0  0
    0.3464   -1.3214    0.0131 O   0  0  0  0  0  0  0  0  0  0  0  0
   -1.6766   -2.3441    0.0203 O   0  0  0  0  0  0  0  0  0  0  0  0
   -2.9879    0.1723   -0.1365 O   0  0  0  0  0  0  0  0  0  0  0  0
   -1.3638    2.3918    0.6512 O   0  0  0  0  0  0  0  0  0  0  0  0
    1.3687    2.1681   -0.0915 O   0  0  0  0  0  0  0  0  0  0  0  0
    3.1050   -1.6058   -0.5344 O   0  0  0  0  0  0  0  0  0  0  0  0
    2.5624   -0.6528    1.2152 H   0  0  0  0  0  0  0  0  0  0  0  0
    3.2013    0.3599   -0.1119 H   0  0  0  0  0  0  0  0  0  0  0  0
    1.1262   -0.0540   -1.4195 H   0  0  0  0  0  0  0  0  0  0  0  0
    0.6565    0.9699    1.4290 H   0  0  0  0  0  0  0  0  0  0  0  0
   -0.9542    1.4406   -1.1300 H   0  0  0  0  0  0  0  0  0  0  0  0
   -1.6337   -0.1597    1.3909 H   0  0  0  0  0  0  0  0  0  0  0  0
   -1.0536   -1.0699   -1.4770 H   0  0  0  0  0  0  0  0  0  0  0  0
   -1.1014   -3.1052   -0.1206 H   0  0  0  0  0  0  0  0  0  0  0  0
   -3.4361   -0.6775   -0.0482 H   0  0  0  0  0  0  0  0  0  0  0  0
   -2.3235    2.3969    0.5510 H   0  0  0  0  0  0  0  0  0  0  0  0
    0.9025    2.9685    0.1837 H   0  0  0  0  0  0  0  0  0  0  0  0
    2.4961   -2.3425   -0.4045 H   0  0  0  0  0  0  0  0  0  0  0  0
  1  2  1  0  0  0  0
  2  3  1  0  0  0  0
  3  4  1  0  0  0  0
  4  5  1  0  0  0  0
  5  6  1  0  0  0  0
  2  7  1  0  0  0  0
  6  7  1  0  0  0  0
  6  8  1  0  0  0  0
  5  9  1  0  0  0  0
  4 10  1  0  0  0  0
  3 11  1  0  0  0  0
  1 12  1  0  0  0  0
  1 13  1  0  0  0  0
  1 14  1  0  0  0  0
  2 15  1  0  0  0  0
  3 16  1  0  0  0  0
  4 17  1  0  0  0  0
  5 18  1  0  0  0  0
  6 19  1  0  0  0  0
  8 20  1  0  0  0  0
  9 21  1  0  0  0  0
 10 22  1  0  0  0  0
 11 23  1  0  0  0  0
 12 24  1  0  0  0  0
M  END
