 xtb: 6.7.1pre (5071a88)
          09172600403D

 15 15  0     0  0            999 V2000
    2.4366   -0.3535   -0.5303 C   0  0  0  0  0  0  0  0  0  0  0  0
    1.0648    0.1250   -0.2132 C   0  0  0  0  0  0  0  0  0  0  0  0
    0.5596    1.3745   -0.0252 C   0  0  0  0  0  0  0  0  0  0  0  0
   -0.8228    1.2095    0.2514 C   0  0  0  0  0  0  0  0  0  0  0  0
   -1.0643   -0.1291    0.2128 C   0  0  0  0  0  0  0  0  0  0  0  0
    0.0809   -0.7939   -0.0695 O   0  0  0  0  0  0  0  0  0  0  0  0
   -2.3069   -0.9197    0.4189 C   0  0  0  0  0  0  0  0  0  0  0  0
    2.4403   -0.9059   -1.4694 H   0  0  0  0  0  0  0  0  0  0  0  0
    2.7983   -1.0201    0.2519 H   0  0  0  0  0  0  0  0  0  0  0  0
    3.1088    0.4952   -0.6139 H   0  0  0  0  0  0  0  0  0  0  0  0
    1.0982    2.2988   -0.0760 H   0  0  0  0  0  0  0  0  0  0  0  0
   -1.5345    1.9845    0.4508 H   0  0  0  0  0  0  0  0  0  0  0  0
   -3.1337   -0.2500    0.6353 H   0  0  0  0  0  0  0  0  0  0  0  0
   -2.1835   -1.6148    1.2488 H   0  0  0  0  0  0  0  0  0  0  0  0
   -2.5416   -1.5006   -0.4725 H   0  0  0  0  0  0  0  0  0  0  0  0
  1  2  1  0  0  0  0
  2  3  2  0  0  0  0
  3  4  4  0  0  0  0
  4  5  2  0  0  0  0
  2  6  1  0  0  0  0
  5  6  1  0  0  0  0
  5  7  1  0  0  0  0
  1  8  1  0  0  0  0
  1  9  1  0  0  0  0
  1 10  1  0  0  0  0
  3 11  1  0  0  0  0
  4 12  1  0  0  0  0
  7 13  1  0  0  0  0
  7 14  1  0  0  0  0
  7 15  1  0  0  0  0
M  END
