 xtb: 6.7.1pre (5071a88)
          09172600403D

 15 15  0     0  0            999 V2000
   -1.9683   -0.3353    0.0045 C   0  0  0  0  0  0  0  0  0  0  0  0
   -0.6170   -0.1530    0.6761 C   0  0  0  0  0  0  0  0  0  0  0  0
    0.2295    0.9859    0.0825 C   0  0  0  0  0  0  0  0  0  0  0  0
    1.6496    0.4453    0.1850 C   0  0  0  0  0  0  0  0  0  0  0  0
    1.4439   -1.0635    0.2332 C   0  0  0  0  0  0  0  0  0  0  0  0
    2.2730   -1.9092    0.0704 O   0  0  0  0  0  0  0  0  0  0  0  0
    0.1640   -1.3379    0.5071 O   0  0  0  0  0  0  0  0  0  0  0  0
   -2.4897   -1.1812    0.4430 H   0  0  0  0  0  0  0  0  0  0  0  0
   -1.8349   -0.5241   -1.0579 H   0  0  0  0  0  0  0  0  0  0  0  0
   -2.5678    0.5612    0.1370 H   0  0  0  0  0  0  0  0  0  0  0  0
   -0.7561   -0.0098    1.7571 H   0  0  0  0  0  0  0  0  0  0  0  0
   -0.0453    1.1414   -0.9619 H   0  0  0  0  0  0  0  0  0  0  0  0
    0.0829    1.9177    0.6237 H   0  0  0  0  0  0  0  0  0  0  0  0
    2.1402    0.7446    1.1134 H   0  0  0  0  0  0  0  0  0  0  0  0
    2.2959    0.7180   -0.6460 H   0  0  0  0  0  0  0  0  0  0  0  0
  1  2  1  0  0  0  0
  2  3  1  0  0  0  0
  3  4  1  0  0  0  0
  4  5  1  0  0  0  0
  5  6  2  0  0  0  0
  2  7  1  0  0  0  0
  5  7  1  0  0  0  0
  1  8  1  0  0  0  0
  1  9  1  0  0  0  0
  1 10  1  0  0  0  0
  2 11  1  0  0  0  0
  3 12  1  0  0  0  0
  3 13  1  0  0  0  0
  4 14  1  0  0  0  0
  4 15  1  0  0  0  0
M  END
