 xtb: 6.7.1pre (5071a88)
          09172600403D

 21 21  0     0  0            999 V2000
   -2.9152   -0.2761    2.1795 C   0  0  0  0  0  0  0  0  0  0  0  0
   -1.8940   -0.9456    1.4858 O   0  0  0  0  0  0  0  0  0  0  0  0
   -1.0094   -0.2024    0.7644 C   0  0  0  0  0  0  0  0  0  0  0  0
   -0.0138   -0.9246    0.0943 C   0  0  0  0  0  0  0  0  0  0  0  0
    0.9421   -0.2520   -0.6734 C   0  0  0  0  0  0  0  0  0  0  0  0
    0.9111    1.1303   -0.7761 C   0  0  0  0  0  0  0  0  0  0  0  0
   -0.0759    1.8339   -0.1107 C   0  0  0  0  0  0  0  0  0  0  0  0
   -1.0282    1.1831    0.6523 C   0  0  0  0  0  0  0  0  0  0  0  0
    1.8645   -1.0805   -1.2796 O   0  0  0  0  0  0  0  0  0  0  0  0
    2.8626   -0.4886   -2.0711 C   0  0  0  0  0  0  0  0  0  0  0  0
    0.0153   -2.2814    0.1961 O   0  0  0  0  0  0  0  0  0  0  0  0
   -3.4913   -1.0554    2.6761 H   0  0  0  0  0  0  0  0  0  0  0  0
   -3.5703    0.2788    1.4992 H   0  0  0  0  0  0  0  0  0  0  0  0
   -2.5110    0.4092    2.9325 H   0  0  0  0  0  0  0  0  0  0  0  0
    1.6419    1.6605   -1.3644 H   0  0  0  0  0  0  0  0  0  0  0  0
   -0.1034    2.9099   -0.1882 H   0  0  0  0  0  0  0  0  0  0  0  0
   -1.7832    1.7626    1.1575 H   0  0  0  0  0  0  0  0  0  0  0  0
    3.4916    0.1873   -1.4834 H   0  0  0  0  0  0  0  0  0  0  0  0
    2.4323    0.0570   -2.9168 H   0  0  0  0  0  0  0  0  0  0  0  0
    3.4695   -1.3122   -2.4447 H   0  0  0  0  0  0  0  0  0  0  0  0
    0.7647   -2.5937   -0.3293 H   0  0  0  0  0  0  0  0  0  0  0  0
  1  2  1  0  0  0  0
  2  3  1  0  0  0  0
  3  4  4  0  0  0  0
  4  5  4  0  0  0  0
  5  6  4  0  0  0  0
  6  7  4  0  0  0  0
  3  8  4  0  0  0  0
  7  8  4  0  0  0  0
  5  9  1  0  0  0  0
  9 10  1  0  0  0  0
  4 11  1  0  0  0  0
  1 12  1  0  0  0  0
  1 13  1  0  0  0  0
  1 14  1  0  0  0  0
  6 15  1  0  0  0  0
  7 16  1  0  0  0  0
  8 17  1  0  0  0  0
 10 18  1  0  0  0  0
 10 19  1  0  0  0  0
 10 20  1  0  0  0  0
 11 21  1  0  0  0  0
M  END
