 xtb: 6.7.1pre (5071a88)
          09172600403D

 13 13  0     0  0            999 V2000
   -1.9424    0.3623   -0.3100 C   0  0  0  0  0  0  0  0  0  0  0  0
   -1.7045   -0.8416    0.2730 C   0  0  0  0  0  0  0  0  0  0  0  0
   -0.3963   -0.9881    0.5423 O   0  0  0  0  0  0  0  0  0  0  0  0
    0.2274    0.1398    0.1271 C   0  0  0  0  0  0  0  0  0  0  0  0
   -0.6820    1.0020   -0.4090 C   0  0  0  0  0  0  0  0  0  0  0  0
    1.7110    0.2220    0.2964 C   0  0  0  0  0  0  0  0  0  0  0  0
    2.4063   -0.6485   -0.5700 O   0  0  0  0  0  0  0  0  0  0  0  0
   -2.8879    0.7482   -0.6310 H   0  0  0  0  0  0  0  0  0  0  0  0
   -2.3521   -1.6532    0.5388 H   0  0  0  0  0  0  0  0  0  0  0  0
   -0.4805    1.9694   -0.8202 H   0  0  0  0  0  0  0  0  0  0  0  0
    2.0496    1.2290    0.0476 H   0  0  0  0  0  0  0  0  0  0  0  0
    1.9725    0.0032    1.3434 H   0  0  0  0  0  0  0  0  0  0  0  0
    2.0790   -1.5444   -0.4286 H   0  0  0  0  0  0  0  0  0  0  0  0
  1  2  2  0  0  0  0
  2  3  1  0  0  0  0
  3  4  1  0  0  0  0
  1  5  4  0  0  0  0
  4  5  2  0  0  0  0
  4  6  1  0  0  0  0
  6  7  1  0  0  0  0
  1  8  1  0  0  0  0
  2  9  1  0  0  0  0
  5 10  1  0  0  0  0
  6 11  1  0  0  0  0
  6 12  1  0  0  0  0
  7 13  1  0  0  0  0
M  END
