
     RDKit          3D

 12 12  0  0  0  0  0  0  0  0999 V2000
   -1.9045   -0.0332   -0.0458 C   0  0  0  0  0  0  0  0  0  0  0  0
   -0.4294   -0.0130   -0.0118 C   0  0  0  0  0  0  0  0  0  0  0  0
    0.5031    0.9629    0.2684 C   0  0  0  0  0  0  0  0  0  0  0  0
    1.7725    0.3515    0.1287 C   0  0  0  0  0  0  0  0  0  0  0  0
    1.5316   -0.9547   -0.2268 C   0  0  0  0  0  0  0  0  0  0  0  0
    0.1964   -1.1849   -0.3145 O   0  0  0  0  0  0  0  0  0  0  0  0
   -2.3167    0.9478    0.2097 H   0  0  0  0  0  0  0  0  0  0  0  0
   -2.2608   -0.3031   -1.0446 H   0  0  0  0  0  0  0  0  0  0  0  0
   -2.2940   -0.7636    0.6699 H   0  0  0  0  0  0  0  0  0  0  0  0
    0.2921    1.9878    0.5396 H   0  0  0  0  0  0  0  0  0  0  0  0
    2.7432    0.8051    0.2694 H   0  0  0  0  0  0  0  0  0  0  0  0
    2.1663   -1.8027   -0.4423 H   0  0  0  0  0  0  0  0  0  0  0  0
  1  2  1  0
  2  3  2  0
  3  4  1  0
  4  5  2  0
  5  6  1  0
  6  2  1  0
  1  7  1  0
  1  8  1  0
  1  9  1  0
  3 10  1  0
  4 11  1  0
  5 12  1  0
M  END
>  <molecule_id>  (1) 
8

>  <conformer_id>  (1) 
0

>  <energy_kcal_mol>  (1) 
1.80622031

$$$$
