
     RDKit          3D

 11 11  0  0  0  0  0  0  0  0999 V2000
   -1.5230    0.5855   -0.0121 C   0  0  0  0  0  0  0  0  0  0  0  0
   -1.4926   -0.7876    0.0394 C   0  0  0  0  0  0  0  0  0  0  0  0
   -0.2111   -1.2341    0.0479 O   0  0  0  0  0  0  0  0  0  0  0  0
    0.6022   -0.1365    0.0012 C   0  0  0  0  0  0  0  0  0  0  0  0
   -0.1711    1.0087   -0.0369 C   0  0  0  0  0  0  0  0  0  0  0  0
    2.0304   -0.3232   -0.0011 C   0  0  0  0  0  0  0  0  0  0  0  0
    2.6223   -1.3991    0.0356 O   0  0  0  0  0  0  0  0  0  0  0  0
   -2.4106    1.2026   -0.0295 H   0  0  0  0  0  0  0  0  0  0  0  0
   -2.2536   -1.5552    0.0733 H   0  0  0  0  0  0  0  0  0  0  0  0
    0.1940    2.0257   -0.0776 H   0  0  0  0  0  0  0  0  0  0  0  0
    2.6129    0.6132   -0.0402 H   0  0  0  0  0  0  0  0  0  0  0  0
  1  2  2  0
  2  3  1  0
  3  4  1  0
  4  5  2  0
  4  6  1  0
  6  7  2  0
  5  1  1  0
  1  8  1  0
  2  9  1  0
  5 10  1  0
  6 11  1  0
M  END
>  <molecule_id>  (1) 
6

>  <conformer_id>  (1) 
0

>  <energy_kcal_mol>  (1) 
22.28415071

$$$$

     RDKit          3D

 11 11  0  0  0  0  0  0  0  0999 V2000
   -1.5069    0.1148   -0.6127 C   0  0  0  0  0  0  0  0  0  0  0  0
   -1.4816   -0.5280    0.6025 C   0  0  0  0  0  0  0  0  0  0  0  0
   -0.2105   -0.6018    1.0761 O   0  0  0  0  0  0  0  0  0  0  0  0
    0.5968    0.0022    0.1530 C   0  0  0  0  0  0  0  0  0  0  0  0
   -0.1649    0.4580   -0.9046 C   0  0  0  0  0  0  0  0  0  0  0  0
    2.0093    0.0622    0.4122 C   0  0  0  0  0  0  0  0  0  0  0  0
    2.8422    0.5747   -0.3319 O   0  0  0  0  0  0  0  0  0  0  0  0
   -2.3843    0.3113   -1.2132 H   0  0  0  0  0  0  0  0  0  0  0  0
   -2.2420   -0.9694    1.2322 H   0  0  0  0  0  0  0  0  0  0  0  0
    0.2141    0.9747   -1.7764 H   0  0  0  0  0  0  0  0  0  0  0  0
    2.3278   -0.3987    1.3627 H   0  0  0  0  0  0  0  0  0  0  0  0
  1  2  2  0
  2  3  1  0
  3  4  1  0
  4  5  2  0
  4  6  1  0
  6  7  2  0
  5  1  1  0
  1  8  1  0
  2  9  1  0
  5 10  1  0
  6 11  1  0
M  END
>  <molecule_id>  (2) 
6

>  <conformer_id>  (2) 
1

>  <energy_kcal_mol>  (2) 
18.18282432

$$$$
