
     RDKit          3D

 27 27  0  0  0  0  0  0  0  0999 V2000
    3.6914   -0.0346    0.4696 C   0  0  0  0  0  0  0  0  0  0  0  0
    2.2274    0.0073    0.0544 C   0  0  0  0  0  0  0  0  0  0  0  0
    1.3043   -0.0910    1.2717 C   0  0  0  0  0  0  0  0  0  0  0  0
   -0.2068   -0.0585    0.9703 C   0  0  0  0  0  0  0  0  0  0  0  0
   -0.6558    1.2646    0.3311 C   0  0  0  0  0  0  0  0  0  0  0  0
   -2.1676    1.2906    0.1089 C   0  0  0  0  0  0  0  0  0  0  0  0
   -2.6357    0.0950   -0.7158 C   0  0  0  0  0  0  0  0  0  0  0  0
   -2.1794   -1.2261   -0.1032 C   0  0  0  0  0  0  0  0  0  0  0  0
   -0.6675   -1.2517    0.1190 C   0  0  0  0  0  0  0  0  0  0  0  0
    3.9342    0.7987    1.1367 H   0  0  0  0  0  0  0  0  0  0  0  0
    4.3370    0.0367   -0.4114 H   0  0  0  0  0  0  0  0  0  0  0  0
    3.9259   -0.9700    0.9875 H   0  0  0  0  0  0  0  0  0  0  0  0
    2.0385   -0.8194   -0.6378 H   0  0  0  0  0  0  0  0  0  0  0  0
    2.0467    0.9400   -0.4895 H   0  0  0  0  0  0  0  0  0  0  0  0
    1.5384    0.7305    1.9615 H   0  0  0  0  0  0  0  0  0  0  0  0
    1.5302   -1.0185    1.8140 H   0  0  0  0  0  0  0  0  0  0  0  0
   -0.7134   -0.1381    1.9432 H   0  0  0  0  0  0  0  0  0  0  0  0
   -0.3699    2.1067    0.9722 H   0  0  0  0  0  0  0  0  0  0  0  0
   -0.1584    1.4121   -0.6346 H   0  0  0  0  0  0  0  0  0  0  0  0
   -2.6793    1.2881    1.0792 H   0  0  0  0  0  0  0  0  0  0  0  0
   -2.4493    2.2205   -0.3979 H   0  0  0  0  0  0  0  0  0  0  0  0
   -3.7286    0.1068   -0.7953 H   0  0  0  0  0  0  0  0  0  0  0  0
   -2.2402    0.1791   -1.7356 H   0  0  0  0  0  0  0  0  0  0  0  0
   -2.4693   -2.0554   -0.7583 H   0  0  0  0  0  0  0  0  0  0  0  0
   -2.6918   -1.3813    0.8542 H   0  0  0  0  0  0  0  0  0  0  0  0
   -0.1708   -1.2402   -0.8582 H   0  0  0  0  0  0  0  0  0  0  0  0
   -0.3900   -2.1918    0.6098 H   0  0  0  0  0  0  0  0  0  0  0  0
  1  2  1  0
  2  3  1  0
  3  4  1  0
  4  5  1  0
  5  6  1  0
  6  7  1  0
  7  8  1  0
  8  9  1  0
  9  4  1  0
  1 10  1  0
  1 11  1  0
  1 12  1  0
  2 13  1  0
  2 14  1  0
  3 15  1  0
  3 16  1  0
  4 17  1  0
  5 18  1  0
  5 19  1  0
  6 20  1  0
  6 21  1  0
  7 22  1  0
  7 23  1  0
  8 24  1  0
  8 25  1  0
  9 26  1  0
  9 27  1  0
M  END
>  <molecule_id>  (1) 
173

>  <conformer_id>  (1) 
4

>  <energy_kcal_mol>  (1) 
2.08681937

$$$$

     RDKit          3D

 27 27  0  0  0  0  0  0  0  0999 V2000
    3.2333   -0.2323    0.2847 C   0  0  0  0  0  0  0  0  0  0  0  0
    2.1026    0.0807    1.2516 C   0  0  0  0  0  0  0  0  0  0  0  0
    0.9292    0.8288    0.6095 C   0  0  0  0  0  0  0  0  0  0  0  0
    0.2437    0.1168   -0.5784 C   0  0  0  0  0  0  0  0  0  0  0  0
   -0.3239   -1.2684   -0.2272 C   0  0  0  0  0  0  0  0  0  0  0  0
   -1.5512   -1.1935    0.6785 C   0  0  0  0  0  0  0  0  0  0  0  0
   -2.6390   -0.3113    0.0730 C   0  0  0  0  0  0  0  0  0  0  0  0
   -2.1154    1.0747   -0.2906 C   0  0  0  0  0  0  0  0  0  0  0  0
   -0.8710    0.9982   -1.1746 C   0  0  0  0  0  0  0  0  0  0  0  0
    3.5777    0.6733   -0.2244 H   0  0  0  0  0  0  0  0  0  0  0  0
    4.0830   -0.6599    0.8267 H   0  0  0  0  0  0  0  0  0  0  0  0
    2.9248   -0.9602   -0.4713 H   0  0  0  0  0  0  0  0  0  0  0  0
    2.5022    0.7042    2.0609 H   0  0  0  0  0  0  0  0  0  0  0  0
    1.7554   -0.8445    1.7237 H   0  0  0  0  0  0  0  0  0  0  0  0
    1.2939    1.8061    0.2664 H   0  0  0  0  0  0  0  0  0  0  0  0
    0.1987    1.0414    1.3983 H   0  0  0  0  0  0  0  0  0  0  0  0
    0.9970   -0.0185   -1.3648 H   0  0  0  0  0  0  0  0  0  0  0  0
    0.4394   -1.9028    0.2346 H   0  0  0  0  0  0  0  0  0  0  0  0
   -0.6098   -1.7744   -1.1591 H   0  0  0  0  0  0  0  0  0  0  0  0
   -1.2674   -0.8073    1.6642 H   0  0  0  0  0  0  0  0  0  0  0  0
   -1.9487   -2.2023    0.8387 H   0  0  0  0  0  0  0  0  0  0  0  0
   -3.0365   -0.7949   -0.8281 H   0  0  0  0  0  0  0  0  0  0  0  0
   -3.4736   -0.2180    0.7769 H   0  0  0  0  0  0  0  0  0  0  0  0
   -2.8995    1.6350   -0.8129 H   0  0  0  0  0  0  0  0  0  0  0  0
   -1.8907    1.6338    0.6249 H   0  0  0  0  0  0  0  0  0  0  0  0
   -0.4939    2.0097   -1.3671 H   0  0  0  0  0  0  0  0  0  0  0  0
   -1.1604    0.5857   -2.1501 H   0  0  0  0  0  0  0  0  0  0  0  0
  1  2  1  0
  2  3  1  0
  3  4  1  0
  4  5  1  0
  5  6  1  0
  6  7  1  0
  7  8  1  0
  8  9  1  0
  9  4  1  0
  1 10  1  0
  1 11  1  0
  1 12  1  0
  2 13  1  0
  2 14  1  0
  3 15  1  0
  3 16  1  0
  4 17  1  0
  5 18  1  0
  5 19  1  0
  6 20  1  0
  6 21  1  0
  7 22  1  0
  7 23  1  0
  8 24  1  0
  8 25  1  0
  9 26  1  0
  9 27  1  0
M  END
>  <molecule_id>  (2) 
173

>  <conformer_id>  (2) 
5

>  <energy_kcal_mol>  (2) 
3.39580175

$$$$

     RDKit          3D

 27 27  0  0  0  0  0  0  0  0999 V2000
    3.1824    0.6112   -0.6033 C   0  0  0  0  0  0  0  0  0  0  0  0
    2.5862   -0.4064    0.3589 C   0  0  0  0  0  0  0  0  0  0  0  0
    1.3215   -1.0807   -0.1849 C   0  0  0  0  0  0  0  0  0  0  0  0
   -0.0040   -0.4904    0.3409 C   0  0  0  0  0  0  0  0  0  0  0  0
   -0.1967    0.9865   -0.0337 C   0  0  0  0  0  0  0  0  0  0  0  0
   -1.5541    1.5234    0.4180 C   0  0  0  0  0  0  0  0  0  0  0  0
   -2.7047    0.6711   -0.1030 C   0  0  0  0  0  0  0  0  0  0  0  0
   -2.5297   -0.7918    0.2856 C   0  0  0  0  0  0  0  0  0  0  0  0
   -1.1816   -1.3358   -0.1784 C   0  0  0  0  0  0  0  0  0  0  0  0
    3.4521    0.1372   -1.5528 H   0  0  0  0  0  0  0  0  0  0  0  0
    2.4906    1.4292   -0.8170 H   0  0  0  0  0  0  0  0  0  0  0  0
    4.0922    1.0441   -0.1751 H   0  0  0  0  0  0  0  0  0  0  0  0
    3.3451   -1.1804    0.5284 H   0  0  0  0  0  0  0  0  0  0  0  0
    2.3950    0.0602    1.3316 H   0  0  0  0  0  0  0  0  0  0  0  0
    1.3557   -2.1353    0.1200 H   0  0  0  0  0  0  0  0  0  0  0  0
    1.3289   -1.0809   -1.2820 H   0  0  0  0  0  0  0  0  0  0  0  0
    0.0038   -0.5643    1.4373 H   0  0  0  0  0  0  0  0  0  0  0  0
    0.5821    1.6001    0.4314 H   0  0  0  0  0  0  0  0  0  0  0  0
   -0.1022    1.1099   -1.1198 H   0  0  0  0  0  0  0  0  0  0  0  0
   -1.6743    2.5560    0.0713 H   0  0  0  0  0  0  0  0  0  0  0  0
   -1.5873    1.5498    1.5143 H   0  0  0  0  0  0  0  0  0  0  0  0
   -2.7586    0.7566   -1.1952 H   0  0  0  0  0  0  0  0  0  0  0  0
   -3.6536    1.0483    0.2948 H   0  0  0  0  0  0  0  0  0  0  0  0
   -3.3379   -1.3886   -0.1519 H   0  0  0  0  0  0  0  0  0  0  0  0
   -2.6100   -0.8945    1.3748 H   0  0  0  0  0  0  0  0  0  0  0  0
   -1.1636   -1.3627   -1.2756 H   0  0  0  0  0  0  0  0  0  0  0  0
   -1.0773   -2.3720    0.1655 H   0  0  0  0  0  0  0  0  0  0  0  0
  1  2  1  0
  2  3  1  0
  3  4  1  0
  4  5  1  0
  5  6  1  0
  6  7  1  0
  7  8  1  0
  8  9  1  0
  9  4  1  0
  1 10  1  0
  1 11  1  0
  1 12  1  0
  2 13  1  0
  2 14  1  0
  3 15  1  0
  3 16  1  0
  4 17  1  0
  5 18  1  0
  5 19  1  0
  6 20  1  0
  6 21  1  0
  7 22  1  0
  7 23  1  0
  8 24  1  0
  8 25  1  0
  9 26  1  0
  9 27  1  0
M  END
>  <molecule_id>  (3) 
173

>  <conformer_id>  (3) 
6

>  <energy_kcal_mol>  (3) 
4.24825851

$$$$

     RDKit          3D

 27 27  0  0  0  0  0  0  0  0999 V2000
    3.8200   -0.0710   -0.4295 C   0  0  0  0  0  0  0  0  0  0  0  0
    2.4395   -0.5177    0.0285 C   0  0  0  0  0  0  0  0  0  0  0  0
    1.3797    0.5422   -0.2810 C   0  0  0  0  0  0  0  0  0  0  0  0
   -0.0151    0.2009    0.2793 C   0  0  0  0  0  0  0  0  0  0  0  0
   -0.9628    1.3949    0.0679 C   0  0  0  0  0  0  0  0  0  0  0  0
   -2.3732    1.1037    0.5732 C   0  0  0  0  0  0  0  0  0  0  0  0
   -2.9455   -0.1580   -0.0620 C   0  0  0  0  0  0  0  0  0  0  0  0
   -2.0222   -1.3525    0.1466 C   0  0  0  0  0  0  0  0  0  0  0  0
   -0.6060   -1.0705   -0.3523 C   0  0  0  0  0  0  0  0  0  0  0  0
    4.1238    0.8496    0.0790 H   0  0  0  0  0  0  0  0  0  0  0  0
    3.8351    0.1109   -1.5088 H   0  0  0  0  0  0  0  0  0  0  0  0
    4.5620   -0.8434   -0.2044 H   0  0  0  0  0  0  0  0  0  0  0  0
    2.4656   -0.7159    1.1060 H   0  0  0  0  0  0  0  0  0  0  0  0
    2.1954   -1.4600   -0.4729 H   0  0  0  0  0  0  0  0  0  0  0  0
    1.3179    0.6887   -1.3670 H   0  0  0  0  0  0  0  0  0  0  0  0
    1.7062    1.4994    0.1461 H   0  0  0  0  0  0  0  0  0  0  0  0
    0.0813    0.0339    1.3609 H   0  0  0  0  0  0  0  0  0  0  0  0
   -1.0080    1.6492   -0.9990 H   0  0  0  0  0  0  0  0  0  0  0  0
   -0.5721    2.2779    0.5878 H   0  0  0  0  0  0  0  0  0  0  0  0
   -2.3540    0.9888    1.6639 H   0  0  0  0  0  0  0  0  0  0  0  0
   -3.0263    1.9557    0.3533 H   0  0  0  0  0  0  0  0  0  0  0  0
   -3.0929    0.0074   -1.1364 H   0  0  0  0  0  0  0  0  0  0  0  0
   -3.9307   -0.3732    0.3666 H   0  0  0  0  0  0  0  0  0  0  0  0
   -1.9880   -1.6053    1.2135 H   0  0  0  0  0  0  0  0  0  0  0  0
   -2.4281   -2.2268   -0.3749 H   0  0  0  0  0  0  0  0  0  0  0  0
    0.0194   -1.9394   -0.1205 H   0  0  0  0  0  0  0  0  0  0  0  0
   -0.6210   -0.9696   -1.4450 H   0  0  0  0  0  0  0  0  0  0  0  0
  1  2  1  0
  2  3  1  0
  3  4  1  0
  4  5  1  0
  5  6  1  0
  6  7  1  0
  7  8  1  0
  8  9  1  0
  9  4  1  0
  1 10  1  0
  1 11  1  0
  1 12  1  0
  2 13  1  0
  2 14  1  0
  3 15  1  0
  3 16  1  0
  4 17  1  0
  5 18  1  0
  5 19  1  0
  6 20  1  0
  6 21  1  0
  7 22  1  0
  7 23  1  0
  8 24  1  0
  8 25  1  0
  9 26  1  0
  9 27  1  0
M  END
>  <molecule_id>  (4) 
173

>  <conformer_id>  (4) 
7

>  <energy_kcal_mol>  (4) 
1.28087564

$$$$

     RDKit          3D

 27 27  0  0  0  0  0  0  0  0999 V2000
    3.1207    0.5901    0.2967 C   0  0  0  0  0  0  0  0  0  0  0  0
    2.4362   -0.6379    0.8756 C   0  0  0  0  0  0  0  0  0  0  0  0
    1.2961   -1.1743    0.0042 C   0  0  0  0  0  0  0  0  0  0  0  0
    0.1378   -0.1936   -0.2674 C   0  0  0  0  0  0  0  0  0  0  0  0
   -0.8935   -0.8598   -1.1965 C   0  0  0  0  0  0  0  0  0  0  0  0
   -2.0850    0.0522   -1.4759 C   0  0  0  0  0  0  0  0  0  0  0  0
   -2.7453    0.5212   -0.1847 C   0  0  0  0  0  0  0  0  0  0  0  0
   -1.7382    1.1899    0.7436 C   0  0  0  0  0  0  0  0  0  0  0  0
   -0.5389    0.2867    1.0267 C   0  0  0  0  0  0  0  0  0  0  0  0
    2.4505    1.4545    0.2838 H   0  0  0  0  0  0  0  0  0  0  0  0
    3.4661    0.4029   -0.7249 H   0  0  0  0  0  0  0  0  0  0  0  0
    3.9911    0.8563    0.9050 H   0  0  0  0  0  0  0  0  0  0  0  0
    3.1845   -1.4323    0.9860 H   0  0  0  0  0  0  0  0  0  0  0  0
    2.0752   -0.4158    1.8855 H   0  0  0  0  0  0  0  0  0  0  0  0
    0.8988   -2.0786    0.4832 H   0  0  0  0  0  0  0  0  0  0  0  0
    1.7185   -1.4978   -0.9562 H   0  0  0  0  0  0  0  0  0  0  0  0
    0.5361    0.6833   -0.7941 H   0  0  0  0  0  0  0  0  0  0  0  0
   -1.2535   -1.7931   -0.7447 H   0  0  0  0  0  0  0  0  0  0  0  0
   -0.4187   -1.1302   -2.1473 H   0  0  0  0  0  0  0  0  0  0  0  0
   -1.7513    0.9226   -2.0541 H   0  0  0  0  0  0  0  0  0  0  0  0
   -2.8185   -0.4789   -2.0930 H   0  0  0  0  0  0  0  0  0  0  0  0
   -3.5552    1.2217   -0.4171 H   0  0  0  0  0  0  0  0  0  0  0  0
   -3.2004   -0.3363    0.3262 H   0  0  0  0  0  0  0  0  0  0  0  0
   -2.2279    1.4566    1.6870 H   0  0  0  0  0  0  0  0  0  0  0  0
   -1.3891    2.1257    0.2899 H   0  0  0  0  0  0  0  0  0  0  0  0
    0.1724    0.8432    1.6466 H   0  0  0  0  0  0  0  0  0  0  0  0
   -0.8687   -0.5781    1.6162 H   0  0  0  0  0  0  0  0  0  0  0  0
  1  2  1  0
  2  3  1  0
  3  4  1  0
  4  5  1  0
  5  6  1  0
  6  7  1  0
  7  8  1  0
  8  9  1  0
  9  4  1  0
  1 10  1  0
  1 11  1  0
  1 12  1  0
  2 13  1  0
  2 14  1  0
  3 15  1  0
  3 16  1  0
  4 17  1  0
  5 18  1  0
  5 19  1  0
  6 20  1  0
  6 21  1  0
  7 22  1  0
  7 23  1  0
  8 24  1  0
  8 25  1  0
  9 26  1  0
  9 27  1  0
M  END
>  <molecule_id>  (5) 
173

>  <conformer_id>  (5) 
9

>  <energy_kcal_mol>  (5) 
1.84222082

$$$$

     RDKit          3D

 27 27  0  0  0  0  0  0  0  0999 V2000
   -3.0720    0.3717    0.5241 C   0  0  0  0  0  0  0  0  0  0  0  0
   -2.6183   -0.6493   -0.5038 C   0  0  0  0  0  0  0  0  0  0  0  0
   -1.2696   -0.3433   -1.1663 C   0  0  0  0  0  0  0  0  0  0  0  0
   -0.0617   -0.3466   -0.2052 C   0  0  0  0  0  0  0  0  0  0  0  0
    0.2599    1.0658    0.3168 C   0  0  0  0  0  0  0  0  0  0  0  0
    1.4867    1.0691    1.2270 C   0  0  0  0  0  0  0  0  0  0  0  0
    2.7044    0.4717    0.5311 C   0  0  0  0  0  0  0  0  0  0  0  0
    2.4082   -0.9211   -0.0123 C   0  0  0  0  0  0  0  0  0  0  0  0
    1.1776   -0.9237   -0.9162 C   0  0  0  0  0  0  0  0  0  0  0  0
   -2.4516    0.3322    1.4238 H   0  0  0  0  0  0  0  0  0  0  0  0
   -3.0413    1.3863    0.1155 H   0  0  0  0  0  0  0  0  0  0  0  0
   -4.1021    0.1620    0.8306 H   0  0  0  0  0  0  0  0  0  0  0  0
   -3.3788   -0.7049   -1.2925 H   0  0  0  0  0  0  0  0  0  0  0  0
   -2.5824   -1.6406   -0.0365 H   0  0  0  0  0  0  0  0  0  0  0  0
   -1.1228   -1.1118   -1.9365 H   0  0  0  0  0  0  0  0  0  0  0  0
   -1.3307    0.6123   -1.7017 H   0  0  0  0  0  0  0  0  0  0  0  0
   -0.2860   -0.9972    0.6506 H   0  0  0  0  0  0  0  0  0  0  0  0
   -0.5867    1.4804    0.8707 H   0  0  0  0  0  0  0  0  0  0  0  0
    0.4414    1.7417   -0.5290 H   0  0  0  0  0  0  0  0  0  0  0  0
    1.7096    2.0953    1.5402 H   0  0  0  0  0  0  0  0  0  0  0  0
    1.2672    0.4976    2.1373 H   0  0  0  0  0  0  0  0  0  0  0  0
    3.0119    1.1272   -0.2930 H   0  0  0  0  0  0  0  0  0  0  0  0
    3.5451    0.4243    1.2323 H   0  0  0  0  0  0  0  0  0  0  0  0
    2.2478   -1.6132    0.8236 H   0  0  0  0  0  0  0  0  0  0  0  0
    3.2758   -1.2909   -0.5704 H   0  0  0  0  0  0  0  0  0  0  0  0
    1.3915   -0.3423   -1.8223 H   0  0  0  0  0  0  0  0  0  0  0  0
    0.9768   -1.9528   -1.2380 H   0  0  0  0  0  0  0  0  0  0  0  0
  1  2  1  0
  2  3  1  0
  3  4  1  0
  4  5  1  0
  5  6  1  0
  6  7  1  0
  7  8  1  0
  8  9  1  0
  9  4  1  0
  1 10  1  0
  1 11  1  0
  1 12  1  0
  2 13  1  0
  2 14  1  0
  3 15  1  0
  3 16  1  0
  4 17  1  0
  5 18  1  0
  5 19  1  0
  6 20  1  0
  6 21  1  0
  7 22  1  0
  7 23  1  0
  8 24  1  0
  8 25  1  0
  9 26  1  0
  9 27  1  0
M  END
>  <molecule_id>  (6) 
173

>  <conformer_id>  (6) 
11

>  <energy_kcal_mol>  (6) 
4.71988366

$$$$
