
     RDKit          3D

 17 17  0  0  0  0  0  0  0  0999 V2000
   -2.6576   -0.1595    0.1531 C   0  0  0  0  0  0  0  0  0  0  0  0
   -1.5898    0.7716    0.0210 O   0  0  0  0  0  0  0  0  0  0  0  0
   -0.3221    0.2492   -0.0033 C   0  0  0  0  0  0  0  0  0  0  0  0
    0.0160   -1.1009    0.0888 C   0  0  0  0  0  0  0  0  0  0  0  0
    1.3607   -1.4896    0.0495 C   0  0  0  0  0  0  0  0  0  0  0  0
    2.3705   -0.5341   -0.0815 C   0  0  0  0  0  0  0  0  0  0  0  0
    2.0413    0.8160   -0.1741 C   0  0  0  0  0  0  0  0  0  0  0  0
    0.7044    1.1928   -0.1342 C   0  0  0  0  0  0  0  0  0  0  0  0
    0.4057    2.5256   -0.2269 O   0  0  0  0  0  0  0  0  0  0  0  0
   -2.5928   -0.7023    1.1019 H   0  0  0  0  0  0  0  0  0  0  0  0
   -3.5946    0.4057    0.1565 H   0  0  0  0  0  0  0  0  0  0  0  0
   -2.6877   -0.8487   -0.6972 H   0  0  0  0  0  0  0  0  0  0  0  0
   -0.7356   -1.8760    0.1915 H   0  0  0  0  0  0  0  0  0  0  0  0
    1.6215   -2.5429    0.1214 H   0  0  0  0  0  0  0  0  0  0  0  0
    3.4124   -0.8417   -0.1115 H   0  0  0  0  0  0  0  0  0  0  0  0
    2.8166    1.5690   -0.2762 H   0  0  0  0  0  0  0  0  0  0  0  0
   -0.5691    2.5658   -0.1788 H   0  0  0  0  0  0  0  0  0  0  0  0
  1  2  1  0
  2  3  1  0
  3  4  2  0
  4  5  1  0
  5  6  2  0
  6  7  1  0
  7  8  2  0
  8  9  1  0
  8  3  1  0
  1 10  1  0
  1 11  1  0
  1 12  1  0
  4 13  1  0
  5 14  1  0
  6 15  1  0
  7 16  1  0
  9 17  1  0
M  END
>  <molecule_id>  (1) 
10

>  <conformer_id>  (1) 
0

>  <energy_kcal_mol>  (1) 
19.32351996

$$$$
