
     RDKit          3D

 14 14  0  0  0  0  0  0  0  0999 V2000
   -1.7046    0.5958    0.1266 C   0  0  0  0  0  0  0  0  0  0  0  0
   -1.4825   -0.7453    0.4572 C   0  0  0  0  0  0  0  0  0  0  0  0
   -0.1957   -1.2864    0.3867 C   0  0  0  0  0  0  0  0  0  0  0  0
    0.8583   -0.4741   -0.0159 C   0  0  0  0  0  0  0  0  0  0  0  0
    0.6333    0.8610   -0.3444 C   0  0  0  0  0  0  0  0  0  0  0  0
   -0.6411    1.4045   -0.2766 C   0  0  0  0  0  0  0  0  0  0  0  0
    1.6754    1.6506   -0.7388 O   0  0  0  0  0  0  0  0  0  0  0  0
    2.1398   -0.9439   -0.1051 O   0  0  0  0  0  0  0  0  0  0  0  0
   -2.7077    1.0111    0.1834 H   0  0  0  0  0  0  0  0  0  0  0  0
   -2.3170   -1.3682    0.7705 H   0  0  0  0  0  0  0  0  0  0  0  0
   -0.0412   -2.3283    0.6466 H   0  0  0  0  0  0  0  0  0  0  0  0
   -0.8041    2.4461   -0.5350 H   0  0  0  0  0  0  0  0  0  0  0  0
    2.4529    1.0584   -0.7085 H   0  0  0  0  0  0  0  0  0  0  0  0
    2.1342   -1.8814    0.1534 H   0  0  0  0  0  0  0  0  0  0  0  0
  1  2  2  0
  2  3  1  0
  3  4  2  0
  4  5  1  0
  5  6  2  0
  5  7  1  0
  4  8  1  0
  6  1  1  0
  1  9  1  0
  2 10  1  0
  3 11  1  0
  6 12  1  0
  7 13  1  0
  8 14  1  0
M  END
>  <molecule_id>  (1) 
12

>  <conformer_id>  (1) 
0

>  <energy_kcal_mol>  (1) 
4.67416627

$$$$
