
     RDKit          3D

 26 25  0  0  0  0  0  0  0  0999 V2000
    4.1318    0.2822    0.0800 C   0  0  0  0  0  0  0  0  0  0  0  0
    2.8208    0.2172   -0.6872 C   0  0  0  0  0  0  0  0  0  0  0  0
    1.6198    0.1849    0.2579 C   0  0  0  0  0  0  0  0  0  0  0  0
    0.3021    0.1201   -0.5182 C   0  0  0  0  0  0  0  0  0  0  0  0
   -0.8991    0.0829    0.4314 C   0  0  0  0  0  0  0  0  0  0  0  0
   -2.2565    0.1431   -0.2933 C   0  0  0  0  0  0  0  0  0  0  0  0
   -2.4928   -1.0702   -1.1939 C   0  0  0  0  0  0  0  0  0  0  0  0
   -3.3876    0.2524    0.7323 C   0  0  0  0  0  0  0  0  0  0  0  0
    4.9769    0.3044   -0.6151 H   0  0  0  0  0  0  0  0  0  0  0  0
    4.2495   -0.5905    0.7303 H   0  0  0  0  0  0  0  0  0  0  0  0
    4.1788    1.1826    0.7008 H   0  0  0  0  0  0  0  0  0  0  0  0
    2.7491    1.0866   -1.3510 H   0  0  0  0  0  0  0  0  0  0  0  0
    2.8196   -0.6767   -1.3218 H   0  0  0  0  0  0  0  0  0  0  0  0
    1.6979   -0.6846    0.9220 H   0  0  0  0  0  0  0  0  0  0  0  0
    1.6291    1.0789    0.8933 H   0  0  0  0  0  0  0  0  0  0  0  0
    0.2223    0.9921   -1.1784 H   0  0  0  0  0  0  0  0  0  0  0  0
    0.3070   -0.7720   -1.1541 H   0  0  0  0  0  0  0  0  0  0  0  0
   -0.8474   -0.8234    1.0482 H   0  0  0  0  0  0  0  0  0  0  0  0
   -0.8288    0.9351    1.1198 H   0  0  0  0  0  0  0  0  0  0  0  0
   -2.2821    1.0448   -0.9183 H   0  0  0  0  0  0  0  0  0  0  0  0
   -1.7731   -1.1019   -2.0173 H   0  0  0  0  0  0  0  0  0  0  0  0
   -2.4093   -2.0054   -0.6302 H   0  0  0  0  0  0  0  0  0  0  0  0
   -3.4926   -1.0333   -1.6403 H   0  0  0  0  0  0  0  0  0  0  0  0
   -4.3591    0.3355    0.2335 H   0  0  0  0  0  0  0  0  0  0  0  0
   -3.2596    1.1405    1.3602 H   0  0  0  0  0  0  0  0  0  0  0  0
   -3.4166   -0.6252    1.3873 H   0  0  0  0  0  0  0  0  0  0  0  0
  1  2  1  0
  2  3  1  0
  3  4  1  0
  4  5  1  0
  5  6  1  0
  6  7  1  0
  6  8  1  0
  1  9  1  0
  1 10  1  0
  1 11  1  0
  2 12  1  0
  2 13  1  0
  3 14  1  0
  3 15  1  0
  4 16  1  0
  4 17  1  0
  5 18  1  0
  5 19  1  0
  6 20  1  0
  7 21  1  0
  7 22  1  0
  7 23  1  0
  8 24  1  0
  8 25  1  0
  8 26  1  0
M  END
>  <molecule_id>  (1) 
171

>  <conformer_id>  (1) 
0

>  <energy_kcal_mol>  (1) 
-0.23577194

$$$$

     RDKit          3D

 26 25  0  0  0  0  0  0  0  0999 V2000
    4.1320   -0.3522    0.0410 C   0  0  0  0  0  0  0  0  0  0  0  0
    2.8351    0.2877   -0.4281 C   0  0  0  0  0  0  0  0  0  0  0  0
    1.6155   -0.4271    0.1532 C   0  0  0  0  0  0  0  0  0  0  0  0
    0.3121    0.2196   -0.3219 C   0  0  0  0  0  0  0  0  0  0  0  0
   -0.9080   -0.4957    0.2661 C   0  0  0  0  0  0  0  0  0  0  0  0
   -2.2492    0.0328   -0.2753 C   0  0  0  0  0  0  0  0  0  0  0  0
   -2.4953    1.4952    0.0984 C   0  0  0  0  0  0  0  0  0  0  0  0
   -3.3974   -0.8337    0.2483 C   0  0  0  0  0  0  0  0  0  0  0  0
    4.2172   -0.3121    1.1316 H   0  0  0  0  0  0  0  0  0  0  0  0
    4.9909    0.1745   -0.3865 H   0  0  0  0  0  0  0  0  0  0  0  0
    4.1872   -1.4004   -0.2699 H   0  0  0  0  0  0  0  0  0  0  0  0
    2.8262    1.3425   -0.1296 H   0  0  0  0  0  0  0  0  0  0  0  0
    2.7961    0.2601   -1.5233 H   0  0  0  0  0  0  0  0  0  0  0  0
    1.6326   -1.4826   -0.1447 H   0  0  0  0  0  0  0  0  0  0  0  0
    1.6609   -0.3997    1.2488 H   0  0  0  0  0  0  0  0  0  0  0  0
    0.3092    1.2743   -0.0253 H   0  0  0  0  0  0  0  0  0  0  0  0
    0.2649    0.1875   -1.4170 H   0  0  0  0  0  0  0  0  0  0  0  0
   -0.8888   -0.4083    1.3600 H   0  0  0  0  0  0  0  0  0  0  0  0
   -0.8319   -1.5663    0.0357 H   0  0  0  0  0  0  0  0  0  0  0  0
   -2.2422   -0.0454   -1.3699 H   0  0  0  0  0  0  0  0  0  0  0  0
   -3.4850    1.8210   -0.2399 H   0  0  0  0  0  0  0  0  0  0  0  0
   -1.7605    2.1559   -0.3713 H   0  0  0  0  0  0  0  0  0  0  0  0
   -2.4439    1.6421    1.1825 H   0  0  0  0  0  0  0  0  0  0  0  0
   -4.3568   -0.4961   -0.1579 H   0  0  0  0  0  0  0  0  0  0  0  0
   -3.4591   -0.7940    1.3413 H   0  0  0  0  0  0  0  0  0  0  0  0
   -3.2617   -1.8797   -0.0462 H   0  0  0  0  0  0  0  0  0  0  0  0
  1  2  1  0
  2  3  1  0
  3  4  1  0
  4  5  1  0
  5  6  1  0
  6  7  1  0
  6  8  1  0
  1  9  1  0
  1 10  1  0
  1 11  1  0
  2 12  1  0
  2 13  1  0
  3 14  1  0
  3 15  1  0
  4 16  1  0
  4 17  1  0
  5 18  1  0
  5 19  1  0
  6 20  1  0
  7 21  1  0
  7 22  1  0
  7 23  1  0
  8 24  1  0
  8 25  1  0
  8 26  1  0
M  END
>  <molecule_id>  (2) 
171

>  <conformer_id>  (2) 
1

>  <energy_kcal_mol>  (2) 
-0.23577194

$$$$

     RDKit          3D

 26 25  0  0  0  0  0  0  0  0999 V2000
    3.9364   -0.0143    0.1976 C   0  0  0  0  0  0  0  0  0  0  0  0
    2.4984    0.0781   -0.2904 C   0  0  0  0  0  0  0  0  0  0  0  0
    1.5964   -0.9146    0.4442 C   0  0  0  0  0  0  0  0  0  0  0  0
    0.1611   -0.9503   -0.0921 C   0  0  0  0  0  0  0  0  0  0  0  0
   -0.6210    0.3394    0.1790 C   0  0  0  0  0  0  0  0  0  0  0  0
   -2.0590    0.3120   -0.3746 C   0  0  0  0  0  0  0  0  0  0  0  0
   -2.9299   -0.7456    0.3054 C   0  0  0  0  0  0  0  0  0  0  0  0
   -2.7035    1.6911   -0.2104 C   0  0  0  0  0  0  0  0  0  0  0  0
    4.3458   -1.0149    0.0262 H   0  0  0  0  0  0  0  0  0  0  0  0
    4.0020    0.2057    1.2680 H   0  0  0  0  0  0  0  0  0  0  0  0
    4.5646    0.7054   -0.3365 H   0  0  0  0  0  0  0  0  0  0  0  0
    2.1438    1.1027   -0.1376 H   0  0  0  0  0  0  0  0  0  0  0  0
    2.4716   -0.1202   -1.3680 H   0  0  0  0  0  0  0  0  0  0  0  0
    1.5835   -0.6826    1.5161 H   0  0  0  0  0  0  0  0  0  0  0  0
    2.0212   -1.9214    0.3450 H   0  0  0  0  0  0  0  0  0  0  0  0
    0.1758   -1.1568   -1.1690 H   0  0  0  0  0  0  0  0  0  0  0  0
   -0.3471   -1.7944    0.3870 H   0  0  0  0  0  0  0  0  0  0  0  0
   -0.6433    0.5318    1.2592 H   0  0  0  0  0  0  0  0  0  0  0  0
   -0.0934    1.1832   -0.2805 H   0  0  0  0  0  0  0  0  0  0  0  0
   -2.0188    0.0862   -1.4478 H   0  0  0  0  0  0  0  0  0  0  0  0
   -2.9437   -0.6099    1.3920 H   0  0  0  0  0  0  0  0  0  0  0  0
   -3.9628   -0.6880   -0.0549 H   0  0  0  0  0  0  0  0  0  0  0  0
   -2.5709   -1.7567    0.0916 H   0  0  0  0  0  0  0  0  0  0  0  0
   -3.7139    1.7018   -0.6328 H   0  0  0  0  0  0  0  0  0  0  0  0
   -2.1191    2.4586   -0.7288 H   0  0  0  0  0  0  0  0  0  0  0  0
   -2.7742    1.9736    0.8456 H   0  0  0  0  0  0  0  0  0  0  0  0
  1  2  1  0
  2  3  1  0
  3  4  1  0
  4  5  1  0
  5  6  1  0
  6  7  1  0
  6  8  1  0
  1  9  1  0
  1 10  1  0
  1 11  1  0
  2 12  1  0
  2 13  1  0
  3 14  1  0
  3 15  1  0
  4 16  1  0
  4 17  1  0
  5 18  1  0
  5 19  1  0
  6 20  1  0
  7 21  1  0
  7 22  1  0
  7 23  1  0
  8 24  1  0
  8 25  1  0
  8 26  1  0
M  END
>  <molecule_id>  (3) 
171

>  <conformer_id>  (3) 
2

>  <energy_kcal_mol>  (3) 
0.80733176

$$$$

     RDKit          3D

 26 25  0  0  0  0  0  0  0  0999 V2000
    3.5470    1.2116   -0.4055 C   0  0  0  0  0  0  0  0  0  0  0  0
    2.6867    0.2547    0.4044 C   0  0  0  0  0  0  0  0  0  0  0  0
    1.3115    0.0592   -0.2354 C   0  0  0  0  0  0  0  0  0  0  0  0
    0.4498   -0.9008    0.5870 C   0  0  0  0  0  0  0  0  0  0  0  0
   -0.8949   -1.2327   -0.0706 C   0  0  0  0  0  0  0  0  0  0  0  0
   -1.8303   -0.0368   -0.3307 C   0  0  0  0  0  0  0  0  0  0  0  0
   -3.1139   -0.5241   -1.0093 C   0  0  0  0  0  0  0  0  0  0  0  0
   -2.1795    0.7211    0.9504 C   0  0  0  0  0  0  0  0  0  0  0  0
    3.0763    2.1972   -0.4776 H   0  0  0  0  0  0  0  0  0  0  0  0
    4.5252    1.3363    0.0693 H   0  0  0  0  0  0  0  0  0  0  0  0
    3.7075    0.8321   -1.4197 H   0  0  0  0  0  0  0  0  0  0  0  0
    2.5715    0.6475    1.4214 H   0  0  0  0  0  0  0  0  0  0  0  0
    3.2011   -0.7099    0.4851 H   0  0  0  0  0  0  0  0  0  0  0  0
    1.4321   -0.3336   -1.2522 H   0  0  0  0  0  0  0  0  0  0  0  0
    0.8152    1.0325   -0.3188 H   0  0  0  0  0  0  0  0  0  0  0  0
    0.9973   -1.8418    0.7261 H   0  0  0  0  0  0  0  0  0  0  0  0
    0.2884   -0.4911    1.5905 H   0  0  0  0  0  0  0  0  0  0  0  0
   -0.6980   -1.7430   -1.0225 H   0  0  0  0  0  0  0  0  0  0  0  0
   -1.4121   -1.9628    0.5657 H   0  0  0  0  0  0  0  0  0  0  0  0
   -1.3413    0.6601   -1.0214 H   0  0  0  0  0  0  0  0  0  0  0  0
   -3.7748    0.3177   -1.2420 H   0  0  0  0  0  0  0  0  0  0  0  0
   -2.8862   -1.0379   -1.9493 H   0  0  0  0  0  0  0  0  0  0  0  0
   -3.6647   -1.2196   -0.3668 H   0  0  0  0  0  0  0  0  0  0  0  0
   -1.2937    1.1894    1.3901 H   0  0  0  0  0  0  0  0  0  0  0  0
   -2.6209    0.0541    1.6985 H   0  0  0  0  0  0  0  0  0  0  0  0
   -2.8994    1.5207    0.7444 H   0  0  0  0  0  0  0  0  0  0  0  0
  1  2  1  0
  2  3  1  0
  3  4  1  0
  4  5  1  0
  5  6  1  0
  6  7  1  0
  6  8  1  0
  1  9  1  0
  1 10  1  0
  1 11  1  0
  2 12  1  0
  2 13  1  0
  3 14  1  0
  3 15  1  0
  4 16  1  0
  4 17  1  0
  5 18  1  0
  5 19  1  0
  6 20  1  0
  7 21  1  0
  7 22  1  0
  7 23  1  0
  8 24  1  0
  8 25  1  0
  8 26  1  0
M  END
>  <molecule_id>  (4) 
171

>  <conformer_id>  (4) 
3

>  <energy_kcal_mol>  (4) 
0.37369261

$$$$

     RDKit          3D

 26 25  0  0  0  0  0  0  0  0999 V2000
   -2.6423    1.1319   -0.2137 C   0  0  0  0  0  0  0  0  0  0  0  0
   -2.6914   -0.3189   -0.6604 C   0  0  0  0  0  0  0  0  0  0  0  0
   -1.6786   -1.2320    0.0373 C   0  0  0  0  0  0  0  0  0  0  0  0
   -0.2101   -0.8865   -0.2428 C   0  0  0  0  0  0  0  0  0  0  0  0
    0.4200   -0.0355    0.8673 C   0  0  0  0  0  0  0  0  0  0  0  0
    1.8778    0.3976    0.6166 C   0  0  0  0  0  0  0  0  0  0  0  0
    2.0051    1.3378   -0.5823 C   0  0  0  0  0  0  0  0  0  0  0  0
    2.8257   -0.7920    0.4669 C   0  0  0  0  0  0  0  0  0  0  0  0
   -1.7139    1.6150   -0.5315 H   0  0  0  0  0  0  0  0  0  0  0  0
   -3.4714    1.6901   -0.6607 H   0  0  0  0  0  0  0  0  0  0  0  0
   -2.7280    1.2134    0.8743 H   0  0  0  0  0  0  0  0  0  0  0  0
   -2.5453   -0.3671   -1.7460 H   0  0  0  0  0  0  0  0  0  0  0  0
   -3.6973   -0.7092   -0.4633 H   0  0  0  0  0  0  0  0  0  0  0  0
   -1.8743   -1.2572    1.1159 H   0  0  0  0  0  0  0  0  0  0  0  0
   -1.8605   -2.2500   -0.3310 H   0  0  0  0  0  0  0  0  0  0  0  0
   -0.1195   -0.3974   -1.2179 H   0  0  0  0  0  0  0  0  0  0  0  0
    0.3458   -1.8293   -0.3100 H   0  0  0  0  0  0  0  0  0  0  0  0
   -0.1812    0.8638    1.0377 H   0  0  0  0  0  0  0  0  0  0  0  0
    0.3842   -0.6038    1.8061 H   0  0  0  0  0  0  0  0  0  0  0  0
    2.1971    0.9592    1.5048 H   0  0  0  0  0  0  0  0  0  0  0  0
    1.7927    0.8269   -1.5265 H   0  0  0  0  0  0  0  0  0  0  0  0
    1.3173    2.1847   -0.4887 H   0  0  0  0  0  0  0  0  0  0  0  0
    3.0219    1.7403   -0.6468 H   0  0  0  0  0  0  0  0  0  0  0  0
    3.8661   -0.4509    0.4328 H   0  0  0  0  0  0  0  0  0  0  0  0
    2.7277   -1.4778    1.3148 H   0  0  0  0  0  0  0  0  0  0  0  0
    2.6326   -1.3533   -0.4528 H   0  0  0  0  0  0  0  0  0  0  0  0
  1  2  1  0
  2  3  1  0
  3  4  1  0
  4  5  1  0
  5  6  1  0
  6  7  1  0
  6  8  1  0
  1  9  1  0
  1 10  1  0
  1 11  1  0
  2 12  1  0
  2 13  1  0
  3 14  1  0
  3 15  1  0
  4 16  1  0
  4 17  1  0
  5 18  1  0
  5 19  1  0
  6 20  1  0
  7 21  1  0
  7 22  1  0
  7 23  1  0
  8 24  1  0
  8 25  1  0
  8 26  1  0
M  END
>  <molecule_id>  (5) 
171

>  <conformer_id>  (5) 
4

>  <energy_kcal_mol>  (5) 
3.95258091

$$$$

     RDKit          3D

 26 25  0  0  0  0  0  0  0  0999 V2000
    3.8727    0.1099    0.2679 C   0  0  0  0  0  0  0  0  0  0  0  0
    2.3880   -0.1965    0.3936 C   0  0  0  0  0  0  0  0  0  0  0  0
    1.6778   -0.0747   -0.9552 C   0  0  0  0  0  0  0  0  0  0  0  0
    0.2012   -0.4809   -0.9038 C   0  0  0  0  0  0  0  0  0  0  0  0
   -0.6507    0.4436   -0.0277 C   0  0  0  0  0  0  0  0  0  0  0  0
   -2.1639    0.1850   -0.1597 C   0  0  0  0  0  0  0  0  0  0  0  0
   -2.5592   -1.2158    0.3096 C   0  0  0  0  0  0  0  0  0  0  0  0
   -2.9415    1.2357    0.6368 C   0  0  0  0  0  0  0  0  0  0  0  0
    4.0330    1.1279   -0.1012 H   0  0  0  0  0  0  0  0  0  0  0  0
    4.3605   -0.5869   -0.4211 H   0  0  0  0  0  0  0  0  0  0  0  0
    4.3617    0.0209    1.2431 H   0  0  0  0  0  0  0  0  0  0  0  0
    1.9482    0.4957    1.1195 H   0  0  0  0  0  0  0  0  0  0  0  0
    2.2628   -1.2103    0.7909 H   0  0  0  0  0  0  0  0  0  0  0  0
    2.1837   -0.7179   -1.6862 H   0  0  0  0  0  0  0  0  0  0  0  0
    1.7639    0.9532   -1.3280 H   0  0  0  0  0  0  0  0  0  0  0  0
    0.1280   -1.5142   -0.5463 H   0  0  0  0  0  0  0  0  0  0  0  0
   -0.1919   -0.4684   -1.9278 H   0  0  0  0  0  0  0  0  0  0  0  0
   -0.4446    1.4843   -0.3089 H   0  0  0  0  0  0  0  0  0  0  0  0
   -0.3555    0.3351    1.0229 H   0  0  0  0  0  0  0  0  0  0  0  0
   -2.4477    0.2865   -1.2149 H   0  0  0  0  0  0  0  0  0  0  0  0
   -2.2395   -1.3937    1.3420 H   0  0  0  0  0  0  0  0  0  0  0  0
   -2.1138   -1.9887   -0.3239 H   0  0  0  0  0  0  0  0  0  0  0  0
   -3.6458   -1.3477    0.2652 H   0  0  0  0  0  0  0  0  0  0  0  0
   -2.7034    1.1820    1.7046 H   0  0  0  0  0  0  0  0  0  0  0  0
   -2.7029    2.2454    0.2862 H   0  0  0  0  0  0  0  0  0  0  0  0
   -4.0210    1.0908    0.5224 H   0  0  0  0  0  0  0  0  0  0  0  0
  1  2  1  0
  2  3  1  0
  3  4  1  0
  4  5  1  0
  5  6  1  0
  6  7  1  0
  6  8  1  0
  1  9  1  0
  1 10  1  0
  1 11  1  0
  2 12  1  0
  2 13  1  0
  3 14  1  0
  3 15  1  0
  4 16  1  0
  4 17  1  0
  5 18  1  0
  5 19  1  0
  6 20  1  0
  7 21  1  0
  7 22  1  0
  7 23  1  0
  8 24  1  0
  8 25  1  0
  8 26  1  0
M  END
>  <molecule_id>  (6) 
171

>  <conformer_id>  (6) 
5

>  <energy_kcal_mol>  (6) 
0.54455947

$$$$

     RDKit          3D

 26 25  0  0  0  0  0  0  0  0999 V2000
    2.8100   -1.1394   -0.2949 C   0  0  0  0  0  0  0  0  0  0  0  0
    2.6019    0.3666   -0.2638 C   0  0  0  0  0  0  0  0  0  0  0  0
    1.7958    0.8483    0.9450 C   0  0  0  0  0  0  0  0  0  0  0  0
    0.3804    0.2737    1.0707 C   0  0  0  0  0  0  0  0  0  0  0  0
   -0.5140    0.6003   -0.1296 C   0  0  0  0  0  0  0  0  0  0  0  0
   -1.9915    0.2233    0.0900 C   0  0  0  0  0  0  0  0  0  0  0  0
   -2.8328    0.7115   -1.0919 C   0  0  0  0  0  0  0  0  0  0  0  0
   -2.1874   -1.2820    0.2762 C   0  0  0  0  0  0  0  0  0  0  0  0
    3.4756   -1.4094   -1.1212 H   0  0  0  0  0  0  0  0  0  0  0  0
    1.8659   -1.6717   -0.4436 H   0  0  0  0  0  0  0  0  0  0  0  0
    3.2650   -1.4928    0.6357 H   0  0  0  0  0  0  0  0  0  0  0  0
    2.1236    0.6895   -1.1949 H   0  0  0  0  0  0  0  0  0  0  0  0
    3.5845    0.8532   -0.2374 H   0  0  0  0  0  0  0  0  0  0  0  0
    1.7329    1.9430    0.9061 H   0  0  0  0  0  0  0  0  0  0  0  0
    2.3499    0.6051    1.8604 H   0  0  0  0  0  0  0  0  0  0  0  0
   -0.0735    0.6879    1.9796 H   0  0  0  0  0  0  0  0  0  0  0  0
    0.4387   -0.8097    1.2188 H   0  0  0  0  0  0  0  0  0  0  0  0
   -0.4504    1.6770   -0.3330 H   0  0  0  0  0  0  0  0  0  0  0  0
   -0.1388    0.0867   -1.0229 H   0  0  0  0  0  0  0  0  0  0  0  0
   -2.3545    0.7313    0.9925 H   0  0  0  0  0  0  0  0  0  0  0  0
   -2.7384    1.7955   -1.2157 H   0  0  0  0  0  0  0  0  0  0  0  0
   -2.5198    0.2344   -2.0269 H   0  0  0  0  0  0  0  0  0  0  0  0
   -3.8930    0.4862   -0.9347 H   0  0  0  0  0  0  0  0  0  0  0  0
   -1.6989   -1.6377    1.1883 H   0  0  0  0  0  0  0  0  0  0  0  0
   -3.2516   -1.5272    0.3628 H   0  0  0  0  0  0  0  0  0  0  0  0
   -1.7795   -1.8434   -0.5712 H   0  0  0  0  0  0  0  0  0  0  0  0
  1  2  1  0
  2  3  1  0
  3  4  1  0
  4  5  1  0
  5  6  1  0
  6  7  1  0
  6  8  1  0
  1  9  1  0
  1 10  1  0
  1 11  1  0
  2 12  1  0
  2 13  1  0
  3 14  1  0
  3 15  1  0
  4 16  1  0
  4 17  1  0
  5 18  1  0
  5 19  1  0
  6 20  1  0
  7 21  1  0
  7 22  1  0
  7 23  1  0
  8 24  1  0
  8 25  1  0
  8 26  1  0
M  END
>  <molecule_id>  (7) 
171

>  <conformer_id>  (7) 
6

>  <energy_kcal_mol>  (7) 
1.05531773

$$$$

     RDKit          3D

 26 25  0  0  0  0  0  0  0  0999 V2000
    3.1792   -0.2325   -0.3405 C   0  0  0  0  0  0  0  0  0  0  0  0
    2.0810   -0.7331    0.5847 C   0  0  0  0  0  0  0  0  0  0  0  0
    1.2174    0.3872    1.1692 C   0  0  0  0  0  0  0  0  0  0  0  0
    0.4599    1.2405    0.1469 C   0  0  0  0  0  0  0  0  0  0  0  0
   -0.4722    0.4733   -0.7986 C   0  0  0  0  0  0  0  0  0  0  0  0
   -1.5601   -0.3790   -0.1184 C   0  0  0  0  0  0  0  0  0  0  0  0
   -2.3720   -1.1241   -1.1818 C   0  0  0  0  0  0  0  0  0  0  0  0
   -2.4968    0.4595    0.7521 C   0  0  0  0  0  0  0  0  0  0  0  0
    3.8078    0.5098    0.1615 H   0  0  0  0  0  0  0  0  0  0  0  0
    3.8193   -1.0654   -0.6485 H   0  0  0  0  0  0  0  0  0  0  0  0
    2.7655    0.2197   -1.2466 H   0  0  0  0  0  0  0  0  0  0  0  0
    2.5477   -1.2762    1.4155 H   0  0  0  0  0  0  0  0  0  0  0  0
    1.4576   -1.4599    0.0529 H   0  0  0  0  0  0  0  0  0  0  0  0
    0.5048   -0.0530    1.8766 H   0  0  0  0  0  0  0  0  0  0  0  0
    1.8569    1.0521    1.7637 H   0  0  0  0  0  0  0  0  0  0  0  0
   -0.1161    2.0008    0.6878 H   0  0  0  0  0  0  0  0  0  0  0  0
    1.1812    1.8010   -0.4603 H   0  0  0  0  0  0  0  0  0  0  0  0
    0.1328   -0.1694   -1.4501 H   0  0  0  0  0  0  0  0  0  0  0  0
   -0.9523    1.2034   -1.4638 H   0  0  0  0  0  0  0  0  0  0  0  0
   -1.0837   -1.1344    0.5172 H   0  0  0  0  0  0  0  0  0  0  0  0
   -2.8875   -0.4264   -1.8506 H   0  0  0  0  0  0  0  0  0  0  0  0
   -1.7225   -1.7616   -1.7910 H   0  0  0  0  0  0  0  0  0  0  0  0
   -3.1265   -1.7668   -0.7158 H   0  0  0  0  0  0  0  0  0  0  0  0
   -2.9624    1.2643    0.1733 H   0  0  0  0  0  0  0  0  0  0  0  0
   -1.9624    0.9096    1.5940 H   0  0  0  0  0  0  0  0  0  0  0  0
   -3.2966   -0.1611    1.1707 H   0  0  0  0  0  0  0  0  0  0  0  0
  1  2  1  0
  2  3  1  0
  3  4  1  0
  4  5  1  0
  5  6  1  0
  6  7  1  0
  6  8  1  0
  1  9  1  0
  1 10  1  0
  1 11  1  0
  2 12  1  0
  2 13  1  0
  3 14  1  0
  3 15  1  0
  4 16  1  0
  4 17  1  0
  5 18  1  0
  5 19  1  0
  6 20  1  0
  7 21  1  0
  7 22  1  0
  7 23  1  0
  8 24  1  0
  8 25  1  0
  8 26  1  0
M  END
>  <molecule_id>  (8) 
171

>  <conformer_id>  (8) 
7

>  <energy_kcal_mol>  (8) 
1.46762176

$$$$

     RDKit          3D

 26 25  0  0  0  0  0  0  0  0999 V2000
    3.6081    0.2063    0.4953 C   0  0  0  0  0  0  0  0  0  0  0  0
    2.5588    0.9496   -0.3166 C   0  0  0  0  0  0  0  0  0  0  0  0
    1.1515    0.8693    0.2801 C   0  0  0  0  0  0  0  0  0  0  0  0
    0.5818   -0.5530    0.2965 C   0  0  0  0  0  0  0  0  0  0  0  0
   -0.8791   -0.6036    0.7646 C   0  0  0  0  0  0  0  0  0  0  0  0
   -1.9149   -0.6937   -0.3737 C   0  0  0  0  0  0  0  0  0  0  0  0
   -3.3185   -0.8546    0.2173 C   0  0  0  0  0  0  0  0  0  0  0  0
   -1.8869    0.5126   -1.3103 C   0  0  0  0  0  0  0  0  0  0  0  0
    3.6157    0.5481    1.5350 H   0  0  0  0  0  0  0  0  0  0  0  0
    3.4318   -0.8733    0.4862 H   0  0  0  0  0  0  0  0  0  0  0  0
    4.6030    0.3823    0.0736 H   0  0  0  0  0  0  0  0  0  0  0  0
    2.8497    2.0052   -0.3778 H   0  0  0  0  0  0  0  0  0  0  0  0
    2.5507    0.5638   -1.3427 H   0  0  0  0  0  0  0  0  0  0  0  0
    0.4996    1.5286   -0.3020 H   0  0  0  0  0  0  0  0  0  0  0  0
    1.1650    1.2692    1.3016 H   0  0  0  0  0  0  0  0  0  0  0  0
    0.6883   -1.0237   -0.6876 H   0  0  0  0  0  0  0  0  0  0  0  0
    1.1766   -1.1525    0.9963 H   0  0  0  0  0  0  0  0  0  0  0  0
   -0.9940   -1.5015    1.3867 H   0  0  0  0  0  0  0  0  0  0  0  0
   -1.1028    0.2493    1.4176 H   0  0  0  0  0  0  0  0  0  0  0  0
   -1.7000   -1.5907   -0.9686 H   0  0  0  0  0  0  0  0  0  0  0  0
   -4.0644   -0.9709   -0.5761 H   0  0  0  0  0  0  0  0  0  0  0  0
   -3.3730   -1.7421    0.8567 H   0  0  0  0  0  0  0  0  0  0  0  0
   -3.5978    0.0162    0.8204 H   0  0  0  0  0  0  0  0  0  0  0  0
   -2.0195    1.4486   -0.7576 H   0  0  0  0  0  0  0  0  0  0  0  0
   -2.6875    0.4451   -2.0551 H   0  0  0  0  0  0  0  0  0  0  0  0
   -0.9422    0.5652   -1.8597 H   0  0  0  0  0  0  0  0  0  0  0  0
  1  2  1  0
  2  3  1  0
  3  4  1  0
  4  5  1  0
  5  6  1  0
  6  7  1  0
  6  8  1  0
  1  9  1  0
  1 10  1  0
  1 11  1  0
  2 12  1  0
  2 13  1  0
  3 14  1  0
  3 15  1  0
  4 16  1  0
  4 17  1  0
  5 18  1  0
  5 19  1  0
  6 20  1  0
  7 21  1  0
  7 22  1  0
  7 23  1  0
  8 24  1  0
  8 25  1  0
  8 26  1  0
M  END
>  <molecule_id>  (9) 
171

>  <conformer_id>  (9) 
8

>  <energy_kcal_mol>  (9) 
3.56241258

$$$$

     RDKit          3D

 26 25  0  0  0  0  0  0  0  0999 V2000
    3.6410   -0.5930   -0.8871 C   0  0  0  0  0  0  0  0  0  0  0  0
    2.6104   -0.7291    0.2225 C   0  0  0  0  0  0  0  0  0  0  0  0
    1.3299    0.0404   -0.1047 C   0  0  0  0  0  0  0  0  0  0  0  0
    0.2959   -0.1048    1.0135 C   0  0  0  0  0  0  0  0  0  0  0  0
   -0.9613    0.7461    0.7989 C   0  0  0  0  0  0  0  0  0  0  0  0
   -1.7656    0.4479   -0.4805 C   0  0  0  0  0  0  0  0  0  0  0  0
   -2.9702    1.3899   -0.5638 C   0  0  0  0  0  0  0  0  0  0  0  0
   -2.2401   -1.0040   -0.5471 C   0  0  0  0  0  0  0  0  0  0  0  0
    4.5481   -1.1500   -0.6322 H   0  0  0  0  0  0  0  0  0  0  0  0
    3.2544   -0.9875   -1.8322 H   0  0  0  0  0  0  0  0  0  0  0  0
    3.9174    0.4552   -1.0392 H   0  0  0  0  0  0  0  0  0  0  0  0
    2.3792   -1.7904    0.3706 H   0  0  0  0  0  0  0  0  0  0  0  0
    3.0404   -0.3565    1.1595 H   0  0  0  0  0  0  0  0  0  0  0  0
    0.9188   -0.3359   -1.0480 H   0  0  0  0  0  0  0  0  0  0  0  0
    1.5664    1.1010   -0.2520 H   0  0  0  0  0  0  0  0  0  0  0  0
    0.0222   -1.1591    1.1344 H   0  0  0  0  0  0  0  0  0  0  0  0
    0.7519    0.2028    1.9633 H   0  0  0  0  0  0  0  0  0  0  0  0
   -0.6668    1.8037    0.7948 H   0  0  0  0  0  0  0  0  0  0  0  0
   -1.6127    0.6142    1.6728 H   0  0  0  0  0  0  0  0  0  0  0  0
   -1.1365    0.6457   -1.3563 H   0  0  0  0  0  0  0  0  0  0  0  0
   -2.6472    2.4364   -0.5550 H   0  0  0  0  0  0  0  0  0  0  0  0
   -3.5317    1.2229   -1.4892 H   0  0  0  0  0  0  0  0  0  0  0  0
   -3.6534    1.2382    0.2789 H   0  0  0  0  0  0  0  0  0  0  0  0
   -2.8666   -1.1675   -1.4307 H   0  0  0  0  0  0  0  0  0  0  0  0
   -1.3957   -1.6962   -0.6173 H   0  0  0  0  0  0  0  0  0  0  0  0
   -2.8283   -1.2704    0.3375 H   0  0  0  0  0  0  0  0  0  0  0  0
  1  2  1  0
  2  3  1  0
  3  4  1  0
  4  5  1  0
  5  6  1  0
  6  7  1  0
  6  8  1  0
  1  9  1  0
  1 10  1  0
  1 11  1  0
  2 12  1  0
  2 13  1  0
  3 14  1  0
  3 15  1  0
  4 16  1  0
  4 17  1  0
  5 18  1  0
  5 19  1  0
  6 20  1  0
  7 21  1  0
  7 22  1  0
  7 23  1  0
  8 24  1  0
  8 25  1  0
  8 26  1  0
M  END
>  <molecule_id>  (10) 
171

>  <conformer_id>  (10) 
9

>  <energy_kcal_mol>  (10) 
0.37369261

$$$$

     RDKit          3D

 26 25  0  0  0  0  0  0  0  0999 V2000
   -3.3443    0.1667   -0.7398 C   0  0  0  0  0  0  0  0  0  0  0  0
   -2.2153   -0.0244    0.2614 C   0  0  0  0  0  0  0  0  0  0  0  0
   -1.1962   -1.0495   -0.2370 C   0  0  0  0  0  0  0  0  0  0  0  0
   -0.0955   -1.3587    0.7821 C   0  0  0  0  0  0  0  0  0  0  0  0
    0.7631   -0.1658    1.2199 C   0  0  0  0  0  0  0  0  0  0  0  0
    1.4714    0.6006    0.0872 C   0  0  0  0  0  0  0  0  0  0  0  0
    2.4188   -0.2918   -0.7154 C   0  0  0  0  0  0  0  0  0  0  0  0
    2.2473    1.7845    0.6712 C   0  0  0  0  0  0  0  0  0  0  0  0
   -2.9596    0.5220   -1.7011 H   0  0  0  0  0  0  0  0  0  0  0  0
   -4.0608    0.9051   -0.3665 H   0  0  0  0  0  0  0  0  0  0  0  0
   -3.8816   -0.7718   -0.9098 H   0  0  0  0  0  0  0  0  0  0  0  0
   -2.6358   -0.3522    1.2191 H   0  0  0  0  0  0  0  0  0  0  0  0
   -1.7311    0.9432    0.4312 H   0  0  0  0  0  0  0  0  0  0  0  0
   -1.7166   -1.9878   -0.4676 H   0  0  0  0  0  0  0  0  0  0  0  0
   -0.7530   -0.7065   -1.1787 H   0  0  0  0  0  0  0  0  0  0  0  0
    0.5520   -2.1422    0.3711 H   0  0  0  0  0  0  0  0  0  0  0  0
   -0.5575   -1.7936    1.6777 H   0  0  0  0  0  0  0  0  0  0  0  0
    0.1370    0.5322    1.7894 H   0  0  0  0  0  0  0  0  0  0  0  0
    1.5160   -0.5354    1.9288 H   0  0  0  0  0  0  0  0  0  0  0  0
    0.7196    1.0095   -0.5980 H   0  0  0  0  0  0  0  0  0  0  0  0
    3.1632   -0.7654   -0.0664 H   0  0  0  0  0  0  0  0  0  0  0  0
    1.8734   -1.0811   -1.2414 H   0  0  0  0  0  0  0  0  0  0  0  0
    2.9538    0.2920   -1.4723 H   0  0  0  0  0  0  0  0  0  0  0  0
    3.0279    1.4474    1.3618 H   0  0  0  0  0  0  0  0  0  0  0  0
    1.5775    2.4569    1.2177 H   0  0  0  0  0  0  0  0  0  0  0  0
    2.7263    2.3661   -0.1237 H   0  0  0  0  0  0  0  0  0  0  0  0
  1  2  1  0
  2  3  1  0
  3  4  1  0
  4  5  1  0
  5  6  1  0
  6  7  1  0
  6  8  1  0
  1  9  1  0
  1 10  1  0
  1 11  1  0
  2 12  1  0
  2 13  1  0
  3 14  1  0
  3 15  1  0
  4 16  1  0
  4 17  1  0
  5 18  1  0
  5 19  1  0
  6 20  1  0
  7 21  1  0
  7 22  1  0
  7 23  1  0
  8 24  1  0
  8 25  1  0
  8 26  1  0
M  END
>  <molecule_id>  (11) 
171

>  <conformer_id>  (11) 
10

>  <energy_kcal_mol>  (11) 
0.89047898

$$$$

     RDKit          3D

 26 25  0  0  0  0  0  0  0  0999 V2000
    3.8469   -0.2791   -0.7086 C   0  0  0  0  0  0  0  0  0  0  0  0
    2.3609    0.0030   -0.8711 C   0  0  0  0  0  0  0  0  0  0  0  0
    1.6437    0.0065    0.4795 C   0  0  0  0  0  0  0  0  0  0  0  0
    0.1658    0.4033    0.3856 C   0  0  0  0  0  0  0  0  0  0  0  0
   -0.6852   -0.6154   -0.3813 C   0  0  0  0  0  0  0  0  0  0  0  0
   -2.1993   -0.3258   -0.4007 C   0  0  0  0  0  0  0  0  0  0  0  0
   -2.8257   -0.3961    0.9921 C   0  0  0  0  0  0  0  0  0  0  0  0
   -2.5288    1.0091   -1.0687 C   0  0  0  0  0  0  0  0  0  0  0  0
    4.3261    0.4845   -0.0876 H   0  0  0  0  0  0  0  0  0  0  0  0
    4.3411   -0.2813   -1.6852 H   0  0  0  0  0  0  0  0  0  0  0  0
    4.0118   -1.2555   -0.2419 H   0  0  0  0  0  0  0  0  0  0  0  0
    1.9310   -0.7591   -1.5295 H   0  0  0  0  0  0  0  0  0  0  0  0
    2.2314    0.9729   -1.3649 H   0  0  0  0  0  0  0  0  0  0  0  0
    2.1452    0.7175    1.1481 H   0  0  0  0  0  0  0  0  0  0  0  0
    1.7307   -0.9812    0.9485 H   0  0  0  0  0  0  0  0  0  0  0  0
   -0.2147    0.5059    1.4077 H   0  0  0  0  0  0  0  0  0  0  0  0
    0.0896    1.3904   -0.0841 H   0  0  0  0  0  0  0  0  0  0  0  0
   -0.3385   -0.6686   -1.4203 H   0  0  0  0  0  0  0  0  0  0  0  0
   -0.5249   -1.6123    0.0490 H   0  0  0  0  0  0  0  0  0  0  0  0
   -2.6636   -1.1166   -1.0051 H   0  0  0  0  0  0  0  0  0  0  0  0
   -2.5777   -1.3422    1.4843 H   0  0  0  0  0  0  0  0  0  0  0  0
   -2.4879    0.4235    1.6340 H   0  0  0  0  0  0  0  0  0  0  0  0
   -3.9172   -0.3324    0.9242 H   0  0  0  0  0  0  0  0  0  0  0  0
   -3.6117    1.1191   -1.1917 H   0  0  0  0  0  0  0  0  0  0  0  0
   -2.0728    1.0711   -2.0622 H   0  0  0  0  0  0  0  0  0  0  0  0
   -2.1762    1.8590   -0.4757 H   0  0  0  0  0  0  0  0  0  0  0  0
  1  2  1  0
  2  3  1  0
  3  4  1  0
  4  5  1  0
  5  6  1  0
  6  7  1  0
  6  8  1  0
  1  9  1  0
  1 10  1  0
  1 11  1  0
  2 12  1  0
  2 13  1  0
  3 14  1  0
  3 15  1  0
  4 16  1  0
  4 17  1  0
  5 18  1  0
  5 19  1  0
  6 20  1  0
  7 21  1  0
  7 22  1  0
  7 23  1  0
  8 24  1  0
  8 25  1  0
  8 26  1  0
M  END
>  <molecule_id>  (12) 
171

>  <conformer_id>  (12) 
11

>  <energy_kcal_mol>  (12) 
1.22447547

$$$$

     RDKit          3D

 26 25  0  0  0  0  0  0  0  0999 V2000
    3.0785   -1.0598   -0.0052 C   0  0  0  0  0  0  0  0  0  0  0  0
    2.0187   -0.0636    0.4400 C   0  0  0  0  0  0  0  0  0  0  0  0
    1.1824    0.4248   -0.7427 C   0  0  0  0  0  0  0  0  0  0  0  0
    0.1554    1.4927   -0.3660 C   0  0  0  0  0  0  0  0  0  0  0  0
   -0.8994    1.1163    0.6829 C   0  0  0  0  0  0  0  0  0  0  0  0
   -1.9322    0.0250    0.3332 C   0  0  0  0  0  0  0  0  0  0  0  0
   -2.5026    0.1600   -1.0772 C   0  0  0  0  0  0  0  0  0  0  0  0
   -1.4215   -1.3942    0.5800 C   0  0  0  0  0  0  0  0  0  0  0  0
    3.7640   -0.6072   -0.7288 H   0  0  0  0  0  0  0  0  0  0  0  0
    3.6665   -1.3968    0.8543 H   0  0  0  0  0  0  0  0  0  0  0  0
    2.6195   -1.9388   -0.4688 H   0  0  0  0  0  0  0  0  0  0  0  0
    1.3823   -0.5431    1.1901 H   0  0  0  0  0  0  0  0  0  0  0  0
    2.5082    0.7884    0.9258 H   0  0  0  0  0  0  0  0  0  0  0  0
    1.8559    0.8588   -1.4932 H   0  0  0  0  0  0  0  0  0  0  0  0
    0.6911   -0.4178   -1.2380 H   0  0  0  0  0  0  0  0  0  0  0  0
   -0.3439    1.8366   -1.2797 H   0  0  0  0  0  0  0  0  0  0  0  0
    0.7012    2.3669    0.0135 H   0  0  0  0  0  0  0  0  0  0  0  0
   -0.4113    0.8713    1.6337 H   0  0  0  0  0  0  0  0  0  0  0  0
   -1.4682    2.0353    0.8843 H   0  0  0  0  0  0  0  0  0  0  0  0
   -2.7693    0.1679    1.0310 H   0  0  0  0  0  0  0  0  0  0  0  0
   -1.7520   -0.0607   -1.8426 H   0  0  0  0  0  0  0  0  0  0  0  0
   -2.8828    1.1725   -1.2484 H   0  0  0  0  0  0  0  0  0  0  0  0
   -3.3357   -0.5363   -1.2226 H   0  0  0  0  0  0  0  0  0  0  0  0
   -2.2439   -2.1133    0.4944 H   0  0  0  0  0  0  0  0  0  0  0  0
   -0.6556   -1.6941   -0.1379 H   0  0  0  0  0  0  0  0  0  0  0  0
   -1.0054   -1.4907    1.5881 H   0  0  0  0  0  0  0  0  0  0  0  0
  1  2  1  0
  2  3  1  0
  3  4  1  0
  4  5  1  0
  5  6  1  0
  6  7  1  0
  6  8  1  0
  1  9  1  0
  1 10  1  0
  1 11  1  0
  2 12  1  0
  2 13  1  0
  3 14  1  0
  3 15  1  0
  4 16  1  0
  4 17  1  0
  5 18  1  0
  5 19  1  0
  6 20  1  0
  7 21  1  0
  7 22  1  0
  7 23  1  0
  8 24  1  0
  8 25  1  0
  8 26  1  0
M  END
>  <molecule_id>  (13) 
171

>  <conformer_id>  (13) 
12

>  <energy_kcal_mol>  (13) 
3.94368473

$$$$

     RDKit          3D

 26 25  0  0  0  0  0  0  0  0999 V2000
    3.8715   -0.0291    0.5423 C   0  0  0  0  0  0  0  0  0  0  0  0
    2.4811   -0.3902    0.0415 C   0  0  0  0  0  0  0  0  0  0  0  0
    1.6707    0.8605   -0.3017 C   0  0  0  0  0  0  0  0  0  0  0  0
    0.3052    0.5529   -0.9261 C   0  0  0  0  0  0  0  0  0  0  0  0
   -0.6720   -0.1133    0.0484 C   0  0  0  0  0  0  0  0  0  0  0  0
   -2.0400   -0.4389   -0.5825 C   0  0  0  0  0  0  0  0  0  0  0  0
   -2.8058    0.8161   -1.0042 C   0  0  0  0  0  0  0  0  0  0  0  0
   -2.8853   -1.2493    0.4039 C   0  0  0  0  0  0  0  0  0  0  0  0
    4.4319    0.5234   -0.2187 H   0  0  0  0  0  0  0  0  0  0  0  0
    4.4338   -0.9360    0.7858 H   0  0  0  0  0  0  0  0  0  0  0  0
    3.8151    0.5886    1.4443 H   0  0  0  0  0  0  0  0  0  0  0  0
    2.5733   -1.0296   -0.8439 H   0  0  0  0  0  0  0  0  0  0  0  0
    1.9730   -0.9748    0.8154 H   0  0  0  0  0  0  0  0  0  0  0  0
    1.5351    1.4740    0.5973 H   0  0  0  0  0  0  0  0  0  0  0  0
    2.2411    1.4688   -1.0150 H   0  0  0  0  0  0  0  0  0  0  0  0
    0.4395   -0.0818   -1.8101 H   0  0  0  0  0  0  0  0  0  0  0  0
   -0.1163    1.5016   -1.2763 H   0  0  0  0  0  0  0  0  0  0  0  0
   -0.2330   -1.0483    0.4150 H   0  0  0  0  0  0  0  0  0  0  0  0
   -0.8121    0.5339    0.9234 H   0  0  0  0  0  0  0  0  0  0  0  0
   -1.8781   -1.0587   -1.4735 H   0  0  0  0  0  0  0  0  0  0  0  0
   -3.8025    0.5557   -1.3768 H   0  0  0  0  0  0  0  0  0  0  0  0
   -2.2902    1.3471   -1.8097 H   0  0  0  0  0  0  0  0  0  0  0  0
   -2.9299    1.5068   -0.1633 H   0  0  0  0  0  0  0  0  0  0  0  0
   -2.3744   -2.1762    0.6852 H   0  0  0  0  0  0  0  0  0  0  0  0
   -3.8479   -1.5230   -0.0411 H   0  0  0  0  0  0  0  0  0  0  0  0
   -3.0839   -0.6800    1.3184 H   0  0  0  0  0  0  0  0  0  0  0  0
  1  2  1  0
  2  3  1  0
  3  4  1  0
  4  5  1  0
  5  6  1  0
  6  7  1  0
  6  8  1  0
  1  9  1  0
  1 10  1  0
  1 11  1  0
  2 12  1  0
  2 13  1  0
  3 14  1  0
  3 15  1  0
  4 16  1  0
  4 17  1  0
  5 18  1  0
  5 19  1  0
  6 20  1  0
  7 21  1  0
  7 22  1  0
  7 23  1  0
  8 24  1  0
  8 25  1  0
  8 26  1  0
M  END
>  <molecule_id>  (14) 
171

>  <conformer_id>  (14) 
13

>  <energy_kcal_mol>  (14) 
0.80733177

$$$$

     RDKit          3D

 26 25  0  0  0  0  0  0  0  0999 V2000
    2.5203    0.7170    0.6130 C   0  0  0  0  0  0  0  0  0  0  0  0
    2.1510   -0.6744    0.1224 C   0  0  0  0  0  0  0  0  0  0  0  0
    1.2424   -1.4372    1.0854 C   0  0  0  0  0  0  0  0  0  0  0  0
   -0.1413   -0.8275    1.3432 C   0  0  0  0  0  0  0  0  0  0  0  0
   -1.0737   -0.8237    0.1235 C   0  0  0  0  0  0  0  0  0  0  0  0
   -1.0963    0.4834   -0.6928 C   0  0  0  0  0  0  0  0  0  0  0  0
   -1.8851    0.2683   -1.9881 C   0  0  0  0  0  0  0  0  0  0  0  0
   -1.7125    1.6451    0.0905 C   0  0  0  0  0  0  0  0  0  0  0  0
    1.6453    1.3691    0.6802 H   0  0  0  0  0  0  0  0  0  0  0  0
    3.2294    1.1828   -0.0788 H   0  0  0  0  0  0  0  0  0  0  0  0
    2.9918    0.6716    1.5998 H   0  0  0  0  0  0  0  0  0  0  0  0
    1.6942   -0.6141   -0.8703 H   0  0  0  0  0  0  0  0  0  0  0  0
    3.0765   -1.2500   -0.0031 H   0  0  0  0  0  0  0  0  0  0  0  0
    1.1142   -2.4591    0.7068 H   0  0  0  0  0  0  0  0  0  0  0  0
    1.7581   -1.5348    2.0494 H   0  0  0  0  0  0  0  0  0  0  0  0
   -0.0455    0.1658    1.7897 H   0  0  0  0  0  0  0  0  0  0  0  0
   -0.6162   -1.4516    2.1122 H   0  0  0  0  0  0  0  0  0  0  0  0
   -0.8173   -1.6668   -0.5303 H   0  0  0  0  0  0  0  0  0  0  0  0
   -2.0950   -1.0193    0.4779 H   0  0  0  0  0  0  0  0  0  0  0  0
   -0.0768    0.7641   -0.9728 H   0  0  0  0  0  0  0  0  0  0  0  0
   -1.4343   -0.5277   -2.5902 H   0  0  0  0  0  0  0  0  0  0  0  0
   -1.8930    1.1797   -2.5954 H   0  0  0  0  0  0  0  0  0  0  0  0
   -2.9241   -0.0097   -1.7801 H   0  0  0  0  0  0  0  0  0  0  0  0
   -2.7274    1.4047    0.4251 H   0  0  0  0  0  0  0  0  0  0  0  0
   -1.1160    1.8996    0.9710 H   0  0  0  0  0  0  0  0  0  0  0  0
   -1.7686    2.5446   -0.5324 H   0  0  0  0  0  0  0  0  0  0  0  0
  1  2  1  0
  2  3  1  0
  3  4  1  0
  4  5  1  0
  5  6  1  0
  6  7  1  0
  6  8  1  0
  1  9  1  0
  1 10  1  0
  1 11  1  0
  2 12  1  0
  2 13  1  0
  3 14  1  0
  3 15  1  0
  4 16  1  0
  4 17  1  0
  5 18  1  0
  5 19  1  0
  6 20  1  0
  7 21  1  0
  7 22  1  0
  7 23  1  0
  8 24  1  0
  8 25  1  0
  8 26  1  0
M  END
>  <molecule_id>  (15) 
171

>  <conformer_id>  (15) 
14

>  <energy_kcal_mol>  (15) 
4.35921384

$$$$

     RDKit          3D

 26 25  0  0  0  0  0  0  0  0999 V2000
    3.4319   -0.0831    0.7931 C   0  0  0  0  0  0  0  0  0  0  0  0
    2.9705   -0.3248   -0.6358 C   0  0  0  0  0  0  0  0  0  0  0  0
    1.6253    0.3274   -0.9629 C   0  0  0  0  0  0  0  0  0  0  0  0
    0.4541   -0.2704   -0.1780 C   0  0  0  0  0  0  0  0  0  0  0  0
   -0.8778    0.3474   -0.6176 C   0  0  0  0  0  0  0  0  0  0  0  0
   -2.1051   -0.3003    0.0502 C   0  0  0  0  0  0  0  0  0  0  0  0
   -3.3883    0.2724   -0.5571 C   0  0  0  0  0  0  0  0  0  0  0  0
   -2.1194   -0.1015    1.5665 C   0  0  0  0  0  0  0  0  0  0  0  0
    3.4608    0.9870    1.0213 H   0  0  0  0  0  0  0  0  0  0  0  0
    4.4395   -0.4869    0.9353 H   0  0  0  0  0  0  0  0  0  0  0  0
    2.7743   -0.5744    1.5160 H   0  0  0  0  0  0  0  0  0  0  0  0
    3.7271    0.0800   -1.3186 H   0  0  0  0  0  0  0  0  0  0  0  0
    2.9182   -1.4034   -0.8248 H   0  0  0  0  0  0  0  0  0  0  0  0
    1.4384    0.2034   -2.0368 H   0  0  0  0  0  0  0  0  0  0  0  0
    1.6842    1.4064   -0.7751 H   0  0  0  0  0  0  0  0  0  0  0  0
    0.4245   -1.3555   -0.3325 H   0  0  0  0  0  0  0  0  0  0  0  0
    0.6051   -0.0941    0.8915 H   0  0  0  0  0  0  0  0  0  0  0  0
   -0.9722    0.2410   -1.7060 H   0  0  0  0  0  0  0  0  0  0  0  0
   -0.8658    1.4246   -0.4076 H   0  0  0  0  0  0  0  0  0  0  0  0
   -2.0892   -1.3783   -0.1547 H   0  0  0  0  0  0  0  0  0  0  0  0
   -3.4643    1.3510   -0.3816 H   0  0  0  0  0  0  0  0  0  0  0  0
   -3.4175    0.1016   -1.6385 H   0  0  0  0  0  0  0  0  0  0  0  0
   -4.2724   -0.2052   -0.1215 H   0  0  0  0  0  0  0  0  0  0  0  0
   -1.2795   -0.6149    2.0441 H   0  0  0  0  0  0  0  0  0  0  0  0
   -2.0649    0.9605    1.8283 H   0  0  0  0  0  0  0  0  0  0  0  0
   -3.0374   -0.5101    2.0029 H   0  0  0  0  0  0  0  0  0  0  0  0
  1  2  1  0
  2  3  1  0
  3  4  1  0
  4  5  1  0
  5  6  1  0
  6  7  1  0
  6  8  1  0
  1  9  1  0
  1 10  1  0
  1 11  1  0
  2 12  1  0
  2 13  1  0
  3 14  1  0
  3 15  1  0
  4 16  1  0
  4 17  1  0
  5 18  1  0
  5 19  1  0
  6 20  1  0
  7 21  1  0
  7 22  1  0
  7 23  1  0
  8 24  1  0
  8 25  1  0
  8 26  1  0
M  END
>  <molecule_id>  (16) 
171

>  <conformer_id>  (16) 
15

>  <energy_kcal_mol>  (16) 
0.59287315

$$$$
