
     RDKit          3D

 15 15  0  0  0  0  0  0  0  0999 V2000
    1.9786   -0.0455    0.3051 C   0  0  0  0  0  0  0  0  0  0  0  0
    0.6383   -0.2267   -0.3824 C   0  0  0  0  0  0  0  0  0  0  0  0
   -0.4787   -0.5779    0.5739 C   0  0  0  0  0  0  0  0  0  0  0  0
   -1.6946   -0.0709   -0.1622 C   0  0  0  0  0  0  0  0  0  0  0  0
   -1.1339    1.0999   -0.9128 C   0  0  0  0  0  0  0  0  0  0  0  0
   -1.7883    1.9951   -1.4207 O   0  0  0  0  0  0  0  0  0  0  0  0
    0.2278    1.0062   -0.9799 O   0  0  0  0  0  0  0  0  0  0  0  0
    1.9355    0.7563    1.0504 H   0  0  0  0  0  0  0  0  0  0  0  0
    2.7422    0.2474   -0.4235 H   0  0  0  0  0  0  0  0  0  0  0  0
    2.2994   -0.9683    0.7974 H   0  0  0  0  0  0  0  0  0  0  0  0
    0.7287   -0.9747   -1.1794 H   0  0  0  0  0  0  0  0  0  0  0  0
   -0.3719   -0.0312    1.5193 H   0  0  0  0  0  0  0  0  0  0  0  0
   -0.5270   -1.6458    0.8046 H   0  0  0  0  0  0  0  0  0  0  0  0
   -2.4812    0.2418    0.5282 H   0  0  0  0  0  0  0  0  0  0  0  0
   -2.0746   -0.8060   -0.8772 H   0  0  0  0  0  0  0  0  0  0  0  0
  1  2  1  0
  2  3  1  0
  3  4  1  0
  4  5  1  0
  5  6  2  0
  5  7  1  0
  7  2  1  0
  1  8  1  0
  1  9  1  0
  1 10  1  0
  2 11  1  0
  3 12  1  0
  3 13  1  0
  4 14  1  0
  4 15  1  0
M  END
>  <molecule_id>  (1) 
14

>  <conformer_id>  (1) 
0

>  <energy_kcal_mol>  (1) 
-7.46239888

$$$$

     RDKit          3D

 15 15  0  0  0  0  0  0  0  0999 V2000
    1.7680   -0.1924   -0.2035 C   0  0  0  0  0  0  0  0  0  0  0  0
    0.6186    0.5503    0.4637 C   0  0  0  0  0  0  0  0  0  0  0  0
   -0.4886   -0.3604    0.9482 C   0  0  0  0  0  0  0  0  0  0  0  0
   -1.3862   -0.4821   -0.2592 C   0  0  0  0  0  0  0  0  0  0  0  0
   -1.1532    0.8235   -0.9569 C   0  0  0  0  0  0  0  0  0  0  0  0
   -1.8576    1.2910   -1.8363 O   0  0  0  0  0  0  0  0  0  0  0  0
   -0.0097    1.4094   -0.4934 O   0  0  0  0  0  0  0  0  0  0  0  0
    2.2603   -0.8706    0.4999 H   0  0  0  0  0  0  0  0  0  0  0  0
    1.4277   -0.7712   -1.0688 H   0  0  0  0  0  0  0  0  0  0  0  0
    2.5102    0.5205   -0.5786 H   0  0  0  0  0  0  0  0  0  0  0  0
    1.0045    1.1615    1.2866 H   0  0  0  0  0  0  0  0  0  0  0  0
   -1.0420    0.1374    1.7547 H   0  0  0  0  0  0  0  0  0  0  0  0
   -0.1397   -1.3239    1.3303 H   0  0  0  0  0  0  0  0  0  0  0  0
   -2.4339   -0.5929    0.0295 H   0  0  0  0  0  0  0  0  0  0  0  0
   -1.0783   -1.3002   -0.9163 H   0  0  0  0  0  0  0  0  0  0  0  0
  1  2  1  0
  2  3  1  0
  3  4  1  0
  4  5  1  0
  5  6  2  0
  5  7  1  0
  7  2  1  0
  1  8  1  0
  1  9  1  0
  1 10  1  0
  2 11  1  0
  3 12  1  0
  3 13  1  0
  4 14  1  0
  4 15  1  0
M  END
>  <molecule_id>  (2) 
14

>  <conformer_id>  (2) 
1

>  <energy_kcal_mol>  (2) 
-7.17583056

$$$$

     RDKit          3D

 15 15  0  0  0  0  0  0  0  0999 V2000
   -1.6955    0.3629    0.4448 C   0  0  0  0  0  0  0  0  0  0  0  0
   -0.5997   -0.6808    0.2783 C   0  0  0  0  0  0  0  0  0  0  0  0
    0.2167   -0.5035   -0.9835 C   0  0  0  0  0  0  0  0  0  0  0  0
    1.3094    0.4456   -0.5550 C   0  0  0  0  0  0  0  0  0  0  0  0
    1.4459    0.1298    0.9035 C   0  0  0  0  0  0  0  0  0  0  0  0
    2.3835    0.4549    1.6128 O   0  0  0  0  0  0  0  0  0  0  0  0
    0.3459   -0.5494    1.3448 O   0  0  0  0  0  0  0  0  0  0  0  0
   -2.4277    0.2984   -0.3657 H   0  0  0  0  0  0  0  0  0  0  0  0
   -2.2153    0.2150    1.3975 H   0  0  0  0  0  0  0  0  0  0  0  0
   -1.2867    1.3787    0.4679 H   0  0  0  0  0  0  0  0  0  0  0  0
   -1.0383   -1.6836    0.3173 H   0  0  0  0  0  0  0  0  0  0  0  0
    0.6683   -1.4641   -1.2624 H   0  0  0  0  0  0  0  0  0  0  0  0
   -0.3591   -0.1455   -1.8417 H   0  0  0  0  0  0  0  0  0  0  0  0
    1.0104    1.4912   -0.6695 H   0  0  0  0  0  0  0  0  0  0  0  0
    2.2421    0.2506   -1.0891 H   0  0  0  0  0  0  0  0  0  0  0  0
  1  2  1  0
  2  3  1  0
  3  4  1  0
  4  5  1  0
  5  6  2  0
  5  7  1  0
  7  2  1  0
  1  8  1  0
  1  9  1  0
  1 10  1  0
  2 11  1  0
  3 12  1  0
  3 13  1  0
  4 14  1  0
  4 15  1  0
M  END
>  <molecule_id>  (3) 
14

>  <conformer_id>  (3) 
2

>  <energy_kcal_mol>  (3) 
-7.17583056

$$$$

     RDKit          3D

 15 15  0  0  0  0  0  0  0  0999 V2000
   -1.9833   -0.2907    0.0526 C   0  0  0  0  0  0  0  0  0  0  0  0
   -0.5911   -0.1772    0.6448 C   0  0  0  0  0  0  0  0  0  0  0  0
    0.2308    0.9303    0.0254 C   0  0  0  0  0  0  0  0  0  0  0  0
    1.6404    0.4432    0.2564 C   0  0  0  0  0  0  0  0  0  0  0  0
    1.4653   -1.0449    0.1975 C   0  0  0  0  0  0  0  0  0  0  0  0
    2.3612   -1.8582    0.0441 O   0  0  0  0  0  0  0  0  0  0  0  0
    0.1502   -1.3704    0.3764 O   0  0  0  0  0  0  0  0  0  0  0  0
   -2.5207   -1.1310    0.5050 H   0  0  0  0  0  0  0  0  0  0  0  0
   -1.9402   -0.4918   -1.0235 H   0  0  0  0  0  0  0  0  0  0  0  0
   -2.5601    0.6241    0.2179 H   0  0  0  0  0  0  0  0  0  0  0  0
   -0.6598   -0.0597    1.7331 H   0  0  0  0  0  0  0  0  0  0  0  0
    0.0431    1.0016   -1.0534 H   0  0  0  0  0  0  0  0  0  0  0  0
    0.0341    1.9106    0.4682 H   0  0  0  0  0  0  0  0  0  0  0  0
    2.0109    0.7213    1.2471 H   0  0  0  0  0  0  0  0  0  0  0  0
    2.3195    0.7928   -0.5243 H   0  0  0  0  0  0  0  0  0  0  0  0
  1  2  1  0
  2  3  1  0
  3  4  1  0
  4  5  1  0
  5  6  2  0
  5  7  1  0
  7  2  1  0
  1  8  1  0
  1  9  1  0
  1 10  1  0
  2 11  1  0
  3 12  1  0
  3 13  1  0
  4 14  1  0
  4 15  1  0
M  END
>  <molecule_id>  (4) 
14

>  <conformer_id>  (4) 
3

>  <energy_kcal_mol>  (4) 
-7.46239889

$$$$

     RDKit          3D

 15 15  0  0  0  0  0  0  0  0999 V2000
   -1.7381    0.0866    0.4194 C   0  0  0  0  0  0  0  0  0  0  0  0
   -0.6673    0.1306   -0.6620 C   0  0  0  0  0  0  0  0  0  0  0  0
    0.4022   -0.9271   -0.4964 C   0  0  0  0  0  0  0  0  0  0  0  0
    1.4112   -0.2572    0.4045 C   0  0  0  0  0  0  0  0  0  0  0  0
    1.2264    1.1898    0.0619 C   0  0  0  0  0  0  0  0  0  0  0  0
    2.0038    2.0875    0.3410 O   0  0  0  0  0  0  0  0  0  0  0  0
    0.0361    1.3747   -0.5821 O   0  0  0  0  0  0  0  0  0  0  0  0
   -2.4516    0.9053    0.2769 H   0  0  0  0  0  0  0  0  0  0  0  0
   -1.3095    0.2181    1.4187 H   0  0  0  0  0  0  0  0  0  0  0  0
   -2.2847   -0.8608    0.3946 H   0  0  0  0  0  0  0  0  0  0  0  0
   -1.1376    0.0540   -1.6481 H   0  0  0  0  0  0  0  0  0  0  0  0
    0.8700   -1.1265   -1.4690 H   0  0  0  0  0  0  0  0  0  0  0  0
    0.0326   -1.8789   -0.1043 H   0  0  0  0  0  0  0  0  0  0  0  0
    1.1782   -0.4084    1.4622 H   0  0  0  0  0  0  0  0  0  0  0  0
    2.4285   -0.5877    0.1827 H   0  0  0  0  0  0  0  0  0  0  0  0
  1  2  1  0
  2  3  1  0
  3  4  1  0
  4  5  1  0
  5  6  2  0
  5  7  1  0
  7  2  1  0
  1  8  1  0
  1  9  1  0
  1 10  1  0
  2 11  1  0
  3 12  1  0
  3 13  1  0
  4 14  1  0
  4 15  1  0
M  END
>  <molecule_id>  (5) 
14

>  <conformer_id>  (5) 
4

>  <energy_kcal_mol>  (5) 
-7.17583056

$$$$
