
     RDKit          3D

 18 18  0  0  0  0  0  0  0  0999 V2000
   -0.7059   -1.1295   -0.6346 C   0  0  0  0  0  0  0  0  0  0  0  0
    0.5601   -1.3519    0.1885 C   0  0  0  0  0  0  0  0  0  0  0  0
    1.4593   -0.1185    0.1823 C   0  0  0  0  0  0  0  0  0  0  0  0
    0.7059    1.1295    0.6346 C   0  0  0  0  0  0  0  0  0  0  0  0
   -0.5601    1.3519   -0.1885 C   0  0  0  0  0  0  0  0  0  0  0  0
   -1.4593    0.1185   -0.1823 C   0  0  0  0  0  0  0  0  0  0  0  0
   -0.4389   -1.0299   -1.6939 H   0  0  0  0  0  0  0  0  0  0  0  0
   -1.3590   -2.0054   -0.5508 H   0  0  0  0  0  0  0  0  0  0  0  0
    1.1112   -2.2122   -0.2075 H   0  0  0  0  0  0  0  0  0  0  0  0
    0.2846   -1.5966    1.2217 H   0  0  0  0  0  0  0  0  0  0  0  0
    1.8529    0.0403   -0.8293 H   0  0  0  0  0  0  0  0  0  0  0  0
    2.3212   -0.2870    0.8376 H   0  0  0  0  0  0  0  0  0  0  0  0
    1.3590    2.0054    0.5508 H   0  0  0  0  0  0  0  0  0  0  0  0
    0.4389    1.0299    1.6939 H   0  0  0  0  0  0  0  0  0  0  0  0
   -0.2846    1.5966   -1.2217 H   0  0  0  0  0  0  0  0  0  0  0  0
   -1.1112    2.2122    0.2075 H   0  0  0  0  0  0  0  0  0  0  0  0
   -2.3212    0.2870   -0.8376 H   0  0  0  0  0  0  0  0  0  0  0  0
   -1.8529   -0.0403    0.8293 H   0  0  0  0  0  0  0  0  0  0  0  0
  1  2  1  0
  2  3  1  0
  3  4  1  0
  4  5  1  0
  5  6  1  0
  6  1  1  0
  1  7  1  0
  1  8  1  0
  2  9  1  0
  2 10  1  0
  3 11  1  0
  3 12  1  0
  4 13  1  0
  4 14  1  0
  5 15  1  0
  5 16  1  0
  6 17  1  0
  6 18  1  0
M  END
>  <molecule_id>  (1) 
13

>  <conformer_id>  (1) 
0

>  <energy_kcal_mol>  (1) 
-3.56093354

$$$$
