
     RDKit          3D

 15 15  0  0  0  0  0  0  0  0999 V2000
    2.4099   -0.3722   -0.5260 C   0  0  0  0  0  0  0  0  0  0  0  0
    1.0649    0.1468   -0.2118 C   0  0  0  0  0  0  0  0  0  0  0  0
    0.5540    1.4123   -0.0216 C   0  0  0  0  0  0  0  0  0  0  0  0
   -0.8249    1.2477    0.2543 C   0  0  0  0  0  0  0  0  0  0  0  0
   -1.0689   -0.1079    0.2152 C   0  0  0  0  0  0  0  0  0  0  0  0
    0.0797   -0.7828   -0.0685 O   0  0  0  0  0  0  0  0  0  0  0  0
   -2.2771   -0.9316    0.4119 C   0  0  0  0  0  0  0  0  0  0  0  0
    2.3954   -0.9279   -1.4685 H   0  0  0  0  0  0  0  0  0  0  0  0
    2.7562   -1.0429    0.2662 H   0  0  0  0  0  0  0  0  0  0  0  0
    3.1330    0.4436   -0.6223 H   0  0  0  0  0  0  0  0  0  0  0  0
    1.1082    2.3386   -0.0754 H   0  0  0  0  0  0  0  0  0  0  0  0
   -1.5523    2.0211    0.4569 H   0  0  0  0  0  0  0  0  0  0  0  0
   -3.1470   -0.3061    0.6344 H   0  0  0  0  0  0  0  0  0  0  0  0
   -2.1352   -1.6268    1.2450 H   0  0  0  0  0  0  0  0  0  0  0  0
   -2.4960   -1.5118   -0.4898 H   0  0  0  0  0  0  0  0  0  0  0  0
  1  2  1  0
  2  3  2  0
  3  4  1  0
  4  5  2  0
  5  6  1  0
  5  7  1  0
  6  2  1  0
  1  8  1  0
  1  9  1  0
  1 10  1  0
  3 11  1  0
  4 12  1  0
  7 13  1  0
  7 14  1  0
  7 15  1  0
M  END
>  <molecule_id>  (1) 
15

>  <conformer_id>  (1) 
0

>  <energy_kcal_mol>  (1) 
2.00742261

$$$$
