
     RDKit          3D

 16 15  0  0  0  0  0  0  0  0999 V2000
    2.2336    0.5094    1.5095 C   0  0  0  0  0  0  0  0  0  0  0  0
    1.4442   -0.2346    0.4642 C   0  0  0  0  0  0  0  0  0  0  0  0
    1.9304   -1.1885   -0.1413 O   0  0  0  0  0  0  0  0  0  0  0  0
    0.0357    0.2589    0.2102 C   0  0  0  0  0  0  0  0  0  0  0  0
   -0.6722   -0.5604   -0.8617 C   0  0  0  0  0  0  0  0  0  0  0  0
   -2.0642   -0.0493   -1.0920 C   0  0  0  0  0  0  0  0  0  0  0  0
   -2.6066    0.8867   -0.5298 O   0  0  0  0  0  0  0  0  0  0  0  0
   -2.7146   -0.7555   -2.0357 O   0  0  0  0  0  0  0  0  0  0  0  0
    2.3401    1.5556    1.2122 H   0  0  0  0  0  0  0  0  0  0  0  0
    1.7221    0.4405    2.4726 H   0  0  0  0  0  0  0  0  0  0  0  0
    3.2287    0.0662    1.6052 H   0  0  0  0  0  0  0  0  0  0  0  0
    0.0934    1.3103   -0.0942 H   0  0  0  0  0  0  0  0  0  0  0  0
   -0.5187    0.2058    1.1543 H   0  0  0  0  0  0  0  0  0  0  0  0
   -0.1204   -0.5020   -1.8066 H   0  0  0  0  0  0  0  0  0  0  0  0
   -0.7346   -1.6102   -0.5539 H   0  0  0  0  0  0  0  0  0  0  0  0
   -3.5968   -0.3328   -2.0943 H   0  0  0  0  0  0  0  0  0  0  0  0
  1  2  1  0
  2  3  2  0
  2  4  1  0
  4  5  1  0
  5  6  1  0
  6  7  2  0
  6  8  1  0
  1  9  1  0
  1 10  1  0
  1 11  1  0
  4 12  1  0
  4 13  1  0
  5 14  1  0
  5 15  1  0
  8 16  1  0
M  END
>  <molecule_id>  (1) 
4

>  <conformer_id>  (1) 
0

>  <energy_kcal_mol>  (1) 
-35.39601695

$$$$

     RDKit          3D

 16 15  0  0  0  0  0  0  0  0999 V2000
   -2.3821    0.6724   -0.3774 C   0  0  0  0  0  0  0  0  0  0  0  0
   -1.1838   -0.2393   -0.3637 C   0  0  0  0  0  0  0  0  0  0  0  0
   -1.0070   -1.0748   -1.2498 O   0  0  0  0  0  0  0  0  0  0  0  0
   -0.2472   -0.1079    0.8231 C   0  0  0  0  0  0  0  0  0  0  0  0
    1.1214   -0.7157    0.5399 C   0  0  0  0  0  0  0  0  0  0  0  0
    1.8801    0.1081   -0.4639 C   0  0  0  0  0  0  0  0  0  0  0  0
    1.5924    1.2237   -0.8643 O   0  0  0  0  0  0  0  0  0  0  0  0
    3.0014   -0.5082   -0.8830 O   0  0  0  0  0  0  0  0  0  0  0  0
   -2.9992    0.4784    0.5032 H   0  0  0  0  0  0  0  0  0  0  0  0
   -2.9766    0.4866   -1.2762 H   0  0  0  0  0  0  0  0  0  0  0  0
   -2.0504    1.7136   -0.3848 H   0  0  0  0  0  0  0  0  0  0  0  0
   -0.7156   -0.6238    1.6682 H   0  0  0  0  0  0  0  0  0  0  0  0
   -0.1506    0.9529    1.0800 H   0  0  0  0  0  0  0  0  0  0  0  0
    1.0232   -1.7385    0.1607 H   0  0  0  0  0  0  0  0  0  0  0  0
    1.7080   -0.7372    1.4647 H   0  0  0  0  0  0  0  0  0  0  0  0
    3.3861    0.1099   -1.5390 H   0  0  0  0  0  0  0  0  0  0  0  0
  1  2  1  0
  2  3  2  0
  2  4  1  0
  4  5  1  0
  5  6  1  0
  6  7  2  0
  6  8  1  0
  1  9  1  0
  1 10  1  0
  1 11  1  0
  4 12  1  0
  4 13  1  0
  5 14  1  0
  5 15  1  0
  8 16  1  0
M  END
>  <molecule_id>  (2) 
4

>  <conformer_id>  (2) 
1

>  <energy_kcal_mol>  (2) 
-37.00389472

$$$$

     RDKit          3D

 16 15  0  0  0  0  0  0  0  0999 V2000
    2.3204    0.6048   -0.3166 C   0  0  0  0  0  0  0  0  0  0  0  0
    1.0944   -0.2677   -0.2547 C   0  0  0  0  0  0  0  0  0  0  0  0
    0.8996   -1.1527   -1.0865 O   0  0  0  0  0  0  0  0  0  0  0  0
    0.1472   -0.0164    0.9034 C   0  0  0  0  0  0  0  0  0  0  0  0
   -1.1770   -0.7540    0.7414 C   0  0  0  0  0  0  0  0  0  0  0  0
   -2.0160   -0.2751   -0.4141 C   0  0  0  0  0  0  0  0  0  0  0  0
   -2.9672   -0.8739   -0.8907 O   0  0  0  0  0  0  0  0  0  0  0  0
   -1.6960    0.9496   -0.8696 O   0  0  0  0  0  0  0  0  0  0  0  0
    2.0208    1.6517   -0.4079 H   0  0  0  0  0  0  0  0  0  0  0  0
    2.9226    0.3337   -1.1882 H   0  0  0  0  0  0  0  0  0  0  0  0
    2.9184    0.4602    0.5865 H   0  0  0  0  0  0  0  0  0  0  0  0
   -0.0174    1.0627    0.9945 H   0  0  0  0  0  0  0  0  0  0  0  0
    0.6466   -0.3616    1.8155 H   0  0  0  0  0  0  0  0  0  0  0  0
   -0.9944   -1.8252    0.5998 H   0  0  0  0  0  0  0  0  0  0  0  0
   -1.7734   -0.6225    1.6508 H   0  0  0  0  0  0  0  0  0  0  0  0
   -2.3286    1.0866   -1.6073 H   0  0  0  0  0  0  0  0  0  0  0  0
  1  2  1  0
  2  3  2  0
  2  4  1  0
  4  5  1  0
  5  6  1  0
  6  7  2  0
  6  8  1  0
  1  9  1  0
  1 10  1  0
  1 11  1  0
  4 12  1  0
  4 13  1  0
  5 14  1  0
  5 15  1  0
  8 16  1  0
M  END
>  <molecule_id>  (3) 
4

>  <conformer_id>  (3) 
2

>  <energy_kcal_mol>  (3) 
-35.40474557

$$$$

     RDKit          3D

 16 15  0  0  0  0  0  0  0  0999 V2000
   -2.3397    0.7861    0.5502 C   0  0  0  0  0  0  0  0  0  0  0  0
   -1.1010    0.4042   -0.2161 C   0  0  0  0  0  0  0  0  0  0  0  0
   -0.7252    1.0576   -1.1888 O   0  0  0  0  0  0  0  0  0  0  0  0
   -0.3830   -0.8522    0.2411 C   0  0  0  0  0  0  0  0  0  0  0  0
    1.0514   -0.9078   -0.2707 C   0  0  0  0  0  0  0  0  0  0  0  0
    1.9071    0.1252    0.4092 C   0  0  0  0  0  0  0  0  0  0  0  0
    1.6144    0.7905    1.3888 O   0  0  0  0  0  0  0  0  0  0  0  0
    3.1210    0.2354   -0.1627 O   0  0  0  0  0  0  0  0  0  0  0  0
   -3.0784   -0.0154    0.4740 H   0  0  0  0  0  0  0  0  0  0  0  0
   -2.7647    1.7024    0.1313 H   0  0  0  0  0  0  0  0  0  0  0  0
   -2.0824    0.9650    1.5971 H   0  0  0  0  0  0  0  0  0  0  0  0
   -0.9478   -1.7093   -0.1411 H   0  0  0  0  0  0  0  0  0  0  0  0
   -0.4018   -0.8900    1.3360 H   0  0  0  0  0  0  0  0  0  0  0  0
    1.0861   -0.7434   -1.3530 H   0  0  0  0  0  0  0  0  0  0  0  0
    1.4784   -1.8920   -0.0496 H   0  0  0  0  0  0  0  0  0  0  0  0
    3.5655    0.9437    0.3483 H   0  0  0  0  0  0  0  0  0  0  0  0
  1  2  1  0
  2  3  2  0
  2  4  1  0
  4  5  1  0
  5  6  1  0
  6  7  2  0
  6  8  1  0
  1  9  1  0
  1 10  1  0
  1 11  1  0
  4 12  1  0
  4 13  1  0
  5 14  1  0
  5 15  1  0
  8 16  1  0
M  END
>  <molecule_id>  (4) 
4

>  <conformer_id>  (4) 
3

>  <energy_kcal_mol>  (4) 
-37.00389472

$$$$

     RDKit          3D

 16 15  0  0  0  0  0  0  0  0999 V2000
    2.1740    0.9805   -0.5454 C   0  0  0  0  0  0  0  0  0  0  0  0
    0.8301    0.3714   -0.8474 C   0  0  0  0  0  0  0  0  0  0  0  0
    0.1400    0.7808   -1.7798 O   0  0  0  0  0  0  0  0  0  0  0  0
    0.4031   -0.7876    0.0334 C   0  0  0  0  0  0  0  0  0  0  0  0
   -1.0599   -1.1640   -0.1704 C   0  0  0  0  0  0  0  0  0  0  0  0
   -2.0388   -0.1062    0.2668 C   0  0  0  0  0  0  0  0  0  0  0  0
   -3.2212   -0.0715   -0.0353 O   0  0  0  0  0  0  0  0  0  0  0  0
   -1.5354    0.8062    1.1178 O   0  0  0  0  0  0  0  0  0  0  0  0
    2.3713    1.8018   -1.2399 H   0  0  0  0  0  0  0  0  0  0  0  0
    2.1774    1.3734    0.4742 H   0  0  0  0  0  0  0  0  0  0  0  0
    2.9532    0.2232   -0.6612 H   0  0  0  0  0  0  0  0  0  0  0  0
    0.5945   -0.5231    1.0790 H   0  0  0  0  0  0  0  0  0  0  0  0
    1.0378   -1.6435   -0.2216 H   0  0  0  0  0  0  0  0  0  0  0  0
   -1.2484   -1.3760   -1.2289 H   0  0  0  0  0  0  0  0  0  0  0  0
   -1.2807   -2.0680    0.4075 H   0  0  0  0  0  0  0  0  0  0  0  0
   -2.2971    1.4026    1.2829 H   0  0  0  0  0  0  0  0  0  0  0  0
  1  2  1  0
  2  3  2  0
  2  4  1  0
  4  5  1  0
  5  6  1  0
  6  7  2  0
  6  8  1  0
  1  9  1  0
  1 10  1  0
  1 11  1  0
  4 12  1  0
  4 13  1  0
  5 14  1  0
  5 15  1  0
  8 16  1  0
M  END
>  <molecule_id>  (5) 
4

>  <conformer_id>  (5) 
4

>  <energy_kcal_mol>  (5) 
-35.40474558

$$$$

     RDKit          3D

 16 15  0  0  0  0  0  0  0  0999 V2000
    2.2587   -0.0671    0.8687 C   0  0  0  0  0  0  0  0  0  0  0  0
    1.1392    0.1828   -0.1072 C   0  0  0  0  0  0  0  0  0  0  0  0
    1.1297    1.1828   -0.8236 O   0  0  0  0  0  0  0  0  0  0  0  0
    0.0588   -0.8797   -0.1787 C   0  0  0  0  0  0  0  0  0  0  0  0
   -1.1507   -0.4251   -0.9875 C   0  0  0  0  0  0  0  0  0  0  0  0
   -1.9189    0.7125   -0.3677 C   0  0  0  0  0  0  0  0  0  0  0  0
   -2.7438    1.4033   -0.9445 O   0  0  0  0  0  0  0  0  0  0  0  0
   -1.6956    0.8891    0.9471 O   0  0  0  0  0  0  0  0  0  0  0  0
    2.7760   -0.9922    0.6030 H   0  0  0  0  0  0  0  0  0  0  0  0
    1.8532   -0.1380    1.8810 H   0  0  0  0  0  0  0  0  0  0  0  0
    2.9717    0.7613    0.8323 H   0  0  0  0  0  0  0  0  0  0  0  0
    0.5004   -1.7644   -0.6508 H   0  0  0  0  0  0  0  0  0  0  0  0
   -0.2351   -1.1507    0.8411 H   0  0  0  0  0  0  0  0  0  0  0  0
   -1.8459   -1.2649   -1.0944 H   0  0  0  0  0  0  0  0  0  0  0  0
   -0.8349   -0.1085   -1.9880 H   0  0  0  0  0  0  0  0  0  0  0  0
   -2.2628    1.6586    1.1692 H   0  0  0  0  0  0  0  0  0  0  0  0
  1  2  1  0
  2  3  2  0
  2  4  1  0
  4  5  1  0
  5  6  1  0
  6  7  2  0
  6  8  1  0
  1  9  1  0
  1 10  1  0
  1 11  1  0
  4 12  1  0
  4 13  1  0
  5 14  1  0
  5 15  1  0
  8 16  1  0
M  END
>  <molecule_id>  (6) 
4

>  <conformer_id>  (6) 
5

>  <energy_kcal_mol>  (6) 
-35.40474558

$$$$

     RDKit          3D

 16 15  0  0  0  0  0  0  0  0999 V2000
    2.7063    0.5669   -0.3776 C   0  0  0  0  0  0  0  0  0  0  0  0
    1.3366    0.0815   -0.7745 C   0  0  0  0  0  0  0  0  0  0  0  0
    1.1454   -0.4685   -1.8580 O   0  0  0  0  0  0  0  0  0  0  0  0
    0.2270    0.3101    0.2298 C   0  0  0  0  0  0  0  0  0  0  0  0
   -1.1127   -0.2166   -0.2692 C   0  0  0  0  0  0  0  0  0  0  0  0
   -2.1922    0.0234    0.7453 C   0  0  0  0  0  0  0  0  0  0  0  0
   -2.0728    0.5599    1.8336 O   0  0  0  0  0  0  0  0  0  0  0  0
   -3.3890   -0.4325    0.3306 O   0  0  0  0  0  0  0  0  0  0  0  0
    3.4209    0.3485   -1.1760 H   0  0  0  0  0  0  0  0  0  0  0  0
    2.6789    1.6469   -0.2138 H   0  0  0  0  0  0  0  0  0  0  0  0
    3.0267    0.0548    0.5330 H   0  0  0  0  0  0  0  0  0  0  0  0
    0.1611    1.3867    0.4246 H   0  0  0  0  0  0  0  0  0  0  0  0
    0.5056   -0.1904    1.1643 H   0  0  0  0  0  0  0  0  0  0  0  0
   -1.3933    0.2884   -1.2003 H   0  0  0  0  0  0  0  0  0  0  0  0
   -1.0476   -1.2940   -0.4581 H   0  0  0  0  0  0  0  0  0  0  0  0
   -4.0008   -0.2210    1.0664 H   0  0  0  0  0  0  0  0  0  0  0  0
  1  2  1  0
  2  3  2  0
  2  4  1  0
  4  5  1  0
  5  6  1  0
  6  7  2  0
  6  8  1  0
  1  9  1  0
  1 10  1  0
  1 11  1  0
  4 12  1  0
  4 13  1  0
  5 14  1  0
  5 15  1  0
  8 16  1  0
M  END
>  <molecule_id>  (7) 
4

>  <conformer_id>  (7) 
6

>  <energy_kcal_mol>  (7) 
-35.39601695

$$$$

     RDKit          3D

 16 15  0  0  0  0  0  0  0  0999 V2000
    2.1764    0.0408   -1.2170 C   0  0  0  0  0  0  0  0  0  0  0  0
    1.2190    0.2288   -0.0701 C   0  0  0  0  0  0  0  0  0  0  0  0
    1.2783    1.2213    0.6549 O   0  0  0  0  0  0  0  0  0  0  0  0
    0.2245   -0.8917    0.1718 C   0  0  0  0  0  0  0  0  0  0  0  0
   -0.9545   -0.4345    1.0224 C   0  0  0  0  0  0  0  0  0  0  0  0
   -1.8353    0.5147    0.2576 C   0  0  0  0  0  0  0  0  0  0  0  0
   -1.7927    0.7526   -0.9380 O   0  0  0  0  0  0  0  0  0  0  0  0
   -2.7656    1.0891    1.0432 O   0  0  0  0  0  0  0  0  0  0  0  0
    1.6159   -0.0548   -2.1503 H   0  0  0  0  0  0  0  0  0  0  0  0
    2.8377    0.9085   -1.2916 H   0  0  0  0  0  0  0  0  0  0  0  0
    2.7810   -0.8531   -1.0458 H   0  0  0  0  0  0  0  0  0  0  0  0
    0.7599   -1.6999    0.6818 H   0  0  0  0  0  0  0  0  0  0  0  0
   -0.1237   -1.2688   -0.7963 H   0  0  0  0  0  0  0  0  0  0  0  0
   -0.6077    0.0589    1.9367 H   0  0  0  0  0  0  0  0  0  0  0  0
   -1.5617   -1.3031    1.2989 H   0  0  0  0  0  0  0  0  0  0  0  0
   -3.2515    1.6912    0.4418 H   0  0  0  0  0  0  0  0  0  0  0  0
  1  2  1  0
  2  3  2  0
  2  4  1  0
  4  5  1  0
  5  6  1  0
  6  7  2  0
  6  8  1  0
  1  9  1  0
  1 10  1  0
  1 11  1  0
  4 12  1  0
  4 13  1  0
  5 14  1  0
  5 15  1  0
  8 16  1  0
M  END
>  <molecule_id>  (8) 
4

>  <conformer_id>  (8) 
7

>  <energy_kcal_mol>  (8) 
-37.00389470

$$$$

     RDKit          3D

 16 15  0  0  0  0  0  0  0  0999 V2000
   -2.6142   -0.0807   -0.8930 C   0  0  0  0  0  0  0  0  0  0  0  0
   -1.5017   -0.3594    0.0837 C   0  0  0  0  0  0  0  0  0  0  0  0
   -1.7148   -0.9569    1.1376 O   0  0  0  0  0  0  0  0  0  0  0  0
   -0.1256    0.1353   -0.3082 C   0  0  0  0  0  0  0  0  0  0  0  0
    0.9228   -0.1974    0.7460 C   0  0  0  0  0  0  0  0  0  0  0  0
    2.2750    0.3042    0.3312 C   0  0  0  0  0  0  0  0  0  0  0  0
    2.5555    0.9010   -0.6942 O   0  0  0  0  0  0  0  0  0  0  0  0
    3.2228    0.0238    1.2453 O   0  0  0  0  0  0  0  0  0  0  0  0
   -2.3920   -0.5625   -1.8483 H   0  0  0  0  0  0  0  0  0  0  0  0
   -3.5548   -0.4817   -0.5053 H   0  0  0  0  0  0  0  0  0  0  0  0
   -2.7199    0.9983   -1.0297 H   0  0  0  0  0  0  0  0  0  0  0  0
   -0.1832    1.2200   -0.4550 H   0  0  0  0  0  0  0  0  0  0  0  0
    0.1416   -0.3260   -1.2659 H   0  0  0  0  0  0  0  0  0  0  0  0
    0.6580    0.2689    1.7015 H   0  0  0  0  0  0  0  0  0  0  0  0
    0.9838   -1.2822    0.8879 H   0  0  0  0  0  0  0  0  0  0  0  0
    4.0467    0.3955    0.8666 H   0  0  0  0  0  0  0  0  0  0  0  0
  1  2  1  0
  2  3  2  0
  2  4  1  0
  4  5  1  0
  5  6  1  0
  6  7  2  0
  6  8  1  0
  1  9  1  0
  1 10  1  0
  1 11  1  0
  4 12  1  0
  4 13  1  0
  5 14  1  0
  5 15  1  0
  8 16  1  0
M  END
>  <molecule_id>  (9) 
4

>  <conformer_id>  (9) 
8

>  <energy_kcal_mol>  (9) 
-35.39601694

$$$$

     RDKit          3D

 16 15  0  0  0  0  0  0  0  0999 V2000
    2.0095    0.7366   -0.1599 C   0  0  0  0  0  0  0  0  0  0  0  0
    0.8054    0.1907   -0.8814 C   0  0  0  0  0  0  0  0  0  0  0  0
    0.3461    0.7514   -1.8762 O   0  0  0  0  0  0  0  0  0  0  0  0
    0.1586   -1.0589   -0.3206 C   0  0  0  0  0  0  0  0  0  0  0  0
   -0.6475   -0.7608    0.9290 C   0  0  0  0  0  0  0  0  0  0  0  0
   -1.8762    0.0305    0.5865 C   0  0  0  0  0  0  0  0  0  0  0  0
   -2.9284   -0.4191    0.1677 O   0  0  0  0  0  0  0  0  0  0  0  0
   -1.6983    1.3525    0.7602 O   0  0  0  0  0  0  0  0  0  0  0  0
    2.7430   -0.0596   -0.0112 H   0  0  0  0  0  0  0  0  0  0  0  0
    2.4713    1.5233   -0.7632 H   0  0  0  0  0  0  0  0  0  0  0  0
    1.7083    1.1572    0.8019 H   0  0  0  0  0  0  0  0  0  0  0  0
   -0.4719   -1.4991   -1.1022 H   0  0  0  0  0  0  0  0  0  0  0  0
    0.9502   -1.7842   -0.1031 H   0  0  0  0  0  0  0  0  0  0  0  0
   -0.9778   -1.6928    1.4017 H   0  0  0  0  0  0  0  0  0  0  0  0
   -0.0633   -0.2216    1.6825 H   0  0  0  0  0  0  0  0  0  0  0  0
   -2.5291    1.7538    0.4266 H   0  0  0  0  0  0  0  0  0  0  0  0
  1  2  1  0
  2  3  2  0
  2  4  1  0
  4  5  1  0
  5  6  1  0
  6  7  2  0
  6  8  1  0
  1  9  1  0
  1 10  1  0
  1 11  1  0
  4 12  1  0
  4 13  1  0
  5 14  1  0
  5 15  1  0
  8 16  1  0
M  END
>  <molecule_id>  (10) 
4

>  <conformer_id>  (10) 
9

>  <energy_kcal_mol>  (10) 
-33.78005867

$$$$

     RDKit          3D

 16 15  0  0  0  0  0  0  0  0999 V2000
   -2.3584   -0.2328    1.6067 C   0  0  0  0  0  0  0  0  0  0  0  0
   -1.5290    0.0993    0.3938 C   0  0  0  0  0  0  0  0  0  0  0  0
   -2.0501    0.5202   -0.6378 O   0  0  0  0  0  0  0  0  0  0  0  0
   -0.0359   -0.1148    0.5234 C   0  0  0  0  0  0  0  0  0  0  0  0
    0.7068    0.2504   -0.7558 C   0  0  0  0  0  0  0  0  0  0  0  0
    2.1826    0.0285   -0.5983 C   0  0  0  0  0  0  0  0  0  0  0  0
    2.7630   -0.3844    0.3912 O   0  0  0  0  0  0  0  0  0  0  0  0
    2.8653    0.3434   -1.7150 O   0  0  0  0  0  0  0  0  0  0  0  0
   -2.0458    0.3924    2.4466 H   0  0  0  0  0  0  0  0  0  0  0  0
   -3.4140   -0.0397    1.3960 H   0  0  0  0  0  0  0  0  0  0  0  0
   -2.2357   -1.2896    1.8562 H   0  0  0  0  0  0  0  0  0  0  0  0
    0.3244    0.4980    1.3577 H   0  0  0  0  0  0  0  0  0  0  0  0
    0.1363   -1.1681    0.7729 H   0  0  0  0  0  0  0  0  0  0  0  0
    0.5389    1.3050   -1.0013 H   0  0  0  0  0  0  0  0  0  0  0  0
    0.3501   -0.3667   -1.5881 H   0  0  0  0  0  0  0  0  0  0  0  0
    3.8014    0.1590   -1.4908 H   0  0  0  0  0  0  0  0  0  0  0  0
  1  2  1  0
  2  3  2  0
  2  4  1  0
  4  5  1  0
  5  6  1  0
  6  7  2  0
  6  8  1  0
  1  9  1  0
  1 10  1  0
  1 11  1  0
  4 12  1  0
  4 13  1  0
  5 14  1  0
  5 15  1  0
  8 16  1  0
M  END
>  <molecule_id>  (11) 
4

>  <conformer_id>  (11) 
10

>  <energy_kcal_mol>  (11) 
-35.39601695

$$$$

     RDKit          3D

 16 15  0  0  0  0  0  0  0  0999 V2000
   -2.0071   -0.0125    0.8086 C   0  0  0  0  0  0  0  0  0  0  0  0
   -0.8376   -0.9611    0.7864 C   0  0  0  0  0  0  0  0  0  0  0  0
   -0.4003   -1.4639    1.8212 O   0  0  0  0  0  0  0  0  0  0  0  0
   -0.1995   -1.2588   -0.5549 C   0  0  0  0  0  0  0  0  0  0  0  0
    0.5732   -0.0694   -1.0944 C   0  0  0  0  0  0  0  0  0  0  0  0
    1.6794    0.3365   -0.1643 C   0  0  0  0  0  0  0  0  0  0  0  0
    1.7101    1.3587    0.4992 O   0  0  0  0  0  0  0  0  0  0  0  0
    2.6812   -0.5580   -0.1201 O   0  0  0  0  0  0  0  0  0  0  0  0
   -2.4858   -0.0454    1.7914 H   0  0  0  0  0  0  0  0  0  0  0  0
   -1.6636    1.0057    0.6139 H   0  0  0  0  0  0  0  0  0  0  0  0
   -2.7412   -0.3140    0.0572 H   0  0  0  0  0  0  0  0  0  0  0  0
   -0.9893   -1.5541   -1.2542 H   0  0  0  0  0  0  0  0  0  0  0  0
    0.4579   -2.1277   -0.4328 H   0  0  0  0  0  0  0  0  0  0  0  0
   -0.0836    0.7958   -1.2383 H   0  0  0  0  0  0  0  0  0  0  0  0
    1.0087   -0.2993   -2.0732 H   0  0  0  0  0  0  0  0  0  0  0  0
    3.2975   -0.2007    0.5542 H   0  0  0  0  0  0  0  0  0  0  0  0
  1  2  1  0
  2  3  2  0
  2  4  1  0
  4  5  1  0
  5  6  1  0
  6  7  2  0
  6  8  1  0
  1  9  1  0
  1 10  1  0
  1 11  1  0
  4 12  1  0
  4 13  1  0
  5 14  1  0
  5 15  1  0
  8 16  1  0
M  END
>  <molecule_id>  (12) 
4

>  <conformer_id>  (12) 
11

>  <energy_kcal_mol>  (12) 
-33.54560186

$$$$
