
     RDKit          3D

 21 21  0  0  0  0  0  0  0  0999 V2000
   -2.9327   -0.2669    2.1916 C   0  0  0  0  0  0  0  0  0  0  0  0
   -1.9085   -0.9638    1.4981 O   0  0  0  0  0  0  0  0  0  0  0  0
   -1.0180   -0.2190    0.7723 C   0  0  0  0  0  0  0  0  0  0  0  0
   -0.0164   -0.9275    0.0964 C   0  0  0  0  0  0  0  0  0  0  0  0
    0.9551   -0.2767   -0.6807 C   0  0  0  0  0  0  0  0  0  0  0  0
    0.9202    1.1123   -0.7812 C   0  0  0  0  0  0  0  0  0  0  0  0
   -0.0735    1.8323   -0.1123 C   0  0  0  0  0  0  0  0  0  0  0  0
   -1.0366    1.1724    0.6595 C   0  0  0  0  0  0  0  0  0  0  0  0
    1.8692   -1.1065   -1.2808 O   0  0  0  0  0  0  0  0  0  0  0  0
    2.8702   -0.4834   -2.0772 C   0  0  0  0  0  0  0  0  0  0  0  0
    0.0264   -2.2994    0.1896 O   0  0  0  0  0  0  0  0  0  0  0  0
   -3.5474   -1.0069    2.7132 H   0  0  0  0  0  0  0  0  0  0  0  0
   -3.5830    0.2745    1.4966 H   0  0  0  0  0  0  0  0  0  0  0  0
   -2.5119    0.4063    2.9458 H   0  0  0  0  0  0  0  0  0  0  0  0
    1.6455    1.6658   -1.3675 H   0  0  0  0  0  0  0  0  0  0  0  0
   -0.0996    2.9168   -0.1916 H   0  0  0  0  0  0  0  0  0  0  0  0
   -1.7871    1.7754    1.1593 H   0  0  0  0  0  0  0  0  0  0  0  0
    3.4969    0.1818   -1.4741 H   0  0  0  0  0  0  0  0  0  0  0  0
    2.4255    0.0499   -2.9239 H   0  0  0  0  0  0  0  0  0  0  0  0
    3.5135   -1.2711   -2.4810 H   0  0  0  0  0  0  0  0  0  0  0  0
    0.7922   -2.5664   -0.3521 H   0  0  0  0  0  0  0  0  0  0  0  0
  1  2  1  0
  2  3  1  0
  3  4  1  0
  4  5  2  0
  5  6  1  0
  6  7  2  0
  7  8  1  0
  5  9  1  0
  9 10  1  0
  4 11  1  0
  8  3  2  0
  1 12  1  0
  1 13  1  0
  1 14  1  0
  6 15  1  0
  7 16  1  0
  8 17  1  0
 10 18  1  0
 10 19  1  0
 10 20  1  0
 11 21  1  0
M  END
>  <molecule_id>  (1) 
11

>  <conformer_id>  (1) 
0

>  <energy_kcal_mol>  (1) 
40.03867495

$$$$
