
     RDKit          3D

 15 15  0  0  0  0  0  0  0  0999 V2000
    0.2128   -1.3388    0.6015 C   0  0  0  0  0  0  0  0  0  0  0  0
   -0.6990   -0.4507    0.0720 C   0  0  0  0  0  0  0  0  0  0  0  0
   -0.0488    0.6238   -0.4657 O   0  0  0  0  0  0  0  0  0  0  0  0
    1.2903    0.4167   -0.2838 C   0  0  0  0  0  0  0  0  0  0  0  0
    1.4931   -0.7815    0.3704 C   0  0  0  0  0  0  0  0  0  0  0  0
    2.2114    1.4091   -0.7677 C   0  0  0  0  0  0  0  0  0  0  0  0
    3.4345    1.3432   -0.6721 O   0  0  0  0  0  0  0  0  0  0  0  0
   -2.1771   -0.4363   -0.0124 C   0  0  0  0  0  0  0  0  0  0  0  0
   -2.6448    0.6281    0.8057 O   0  0  0  0  0  0  0  0  0  0  0  0
   -0.0193   -2.2718    1.0971 H   0  0  0  0  0  0  0  0  0  0  0  0
    2.4552   -1.1931    0.6458 H   0  0  0  0  0  0  0  0  0  0  0  0
    1.7424    2.2800   -1.2564 H   0  0  0  0  0  0  0  0  0  0  0  0
   -2.6099   -1.3719    0.3528 H   0  0  0  0  0  0  0  0  0  0  0  0
   -2.5139   -0.2696   -1.0398 H   0  0  0  0  0  0  0  0  0  0  0  0
   -2.1269    1.4129    0.5527 H   0  0  0  0  0  0  0  0  0  0  0  0
  1  2  2  0
  2  3  1  0
  3  4  1  0
  4  5  2  0
  4  6  1  0
  6  7  2  0
  2  8  1  0
  8  9  1  0
  5  1  1  0
  1 10  1  0
  5 11  1  0
  6 12  1  0
  8 13  1  0
  8 14  1  0
  9 15  1  0
M  END
>  <molecule_id>  (1) 
3

>  <conformer_id>  (1) 
0

>  <energy_kcal_mol>  (1) 
22.85218561

$$$$

     RDKit          3D

 15 15  0  0  0  0  0  0  0  0999 V2000
   -0.6003    0.6816    1.0524 C   0  0  0  0  0  0  0  0  0  0  0  0
   -0.6707    0.3199   -0.2769 C   0  0  0  0  0  0  0  0  0  0  0  0
    0.5221   -0.2057   -0.6805 O   0  0  0  0  0  0  0  0  0  0  0  0
    1.3616   -0.1824    0.3964 C   0  0  0  0  0  0  0  0  0  0  0  0
    0.7084    0.3585    1.4852 C   0  0  0  0  0  0  0  0  0  0  0  0
    2.6969   -0.6897    0.2351 C   0  0  0  0  0  0  0  0  0  0  0  0
    3.5487   -0.7249    1.1201 O   0  0  0  0  0  0  0  0  0  0  0  0
   -1.7482    0.3875   -1.2920 C   0  0  0  0  0  0  0  0  0  0  0  0
   -2.2205   -0.9333   -1.5285 O   0  0  0  0  0  0  0  0  0  0  0  0
   -1.3946    1.1242    1.6380 H   0  0  0  0  0  0  0  0  0  0  0  0
    1.1361    0.4976    2.4694 H   0  0  0  0  0  0  0  0  0  0  0  0
    2.9333   -1.0660   -0.7749 H   0  0  0  0  0  0  0  0  0  0  0  0
   -2.5852    1.0006   -0.9451 H   0  0  0  0  0  0  0  0  0  0  0  0
   -1.3784    0.8011   -2.2345 H   0  0  0  0  0  0  0  0  0  0  0  0
   -2.3091   -1.3691   -0.6642 H   0  0  0  0  0  0  0  0  0  0  0  0
  1  2  2  0
  2  3  1  0
  3  4  1  0
  4  5  2  0
  4  6  1  0
  6  7  2  0
  2  8  1  0
  8  9  1  0
  5  1  1  0
  1 10  1  0
  5 11  1  0
  6 12  1  0
  8 13  1  0
  8 14  1  0
  9 15  1  0
M  END
>  <molecule_id>  (2) 
3

>  <conformer_id>  (2) 
1

>  <energy_kcal_mol>  (2) 
24.44948415

$$$$

     RDKit          3D

 15 15  0  0  0  0  0  0  0  0999 V2000
   -0.1284   -1.4388   -0.3816 C   0  0  0  0  0  0  0  0  0  0  0  0
   -0.7105   -0.3697    0.2639 C   0  0  0  0  0  0  0  0  0  0  0  0
    0.1662    0.6739    0.3221 O   0  0  0  0  0  0  0  0  0  0  0  0
    1.3204    0.2735   -0.2902 C   0  0  0  0  0  0  0  0  0  0  0  0
    1.1797   -1.0262   -0.7371 C   0  0  0  0  0  0  0  0  0  0  0  0
    2.4221    1.1976   -0.3721 C   0  0  0  0  0  0  0  0  0  0  0  0
    2.4354    2.3454    0.0658 O   0  0  0  0  0  0  0  0  0  0  0  0
   -2.0415   -0.1380    0.8687 C   0  0  0  0  0  0  0  0  0  0  0  0
   -2.6606    0.9211    0.1501 O   0  0  0  0  0  0  0  0  0  0  0  0
   -0.5946   -2.3952   -0.5765 H   0  0  0  0  0  0  0  0  0  0  0  0
    1.9268   -1.6067   -1.2609 H   0  0  0  0  0  0  0  0  0  0  0  0
    3.3166    0.8008   -0.8818 H   0  0  0  0  0  0  0  0  0  0  0  0
   -2.6764   -1.0254    0.7960 H   0  0  0  0  0  0  0  0  0  0  0  0
   -1.9542    0.1489    1.9207 H   0  0  0  0  0  0  0  0  0  0  0  0
   -2.0009    1.6386    0.1129 H   0  0  0  0  0  0  0  0  0  0  0  0
  1  2  2  0
  2  3  1  0
  3  4  1  0
  4  5  2  0
  4  6  1  0
  6  7  2  0
  2  8  1  0
  8  9  1  0
  5  1  1  0
  1 10  1  0
  5 11  1  0
  6 12  1  0
  8 13  1  0
  8 14  1  0
  9 15  1  0
M  END
>  <molecule_id>  (3) 
3

>  <conformer_id>  (3) 
2

>  <energy_kcal_mol>  (3) 
25.92375819

$$$$
