
     RDKit          3D

 13 13  0  0  0  0  0  0  0  0999 V2000
   -1.6282    0.2814    0.0211 C   0  0  0  0  0  0  0  0  0  0  0  0
   -0.6934    1.3081    0.1651 C   0  0  0  0  0  0  0  0  0  0  0  0
    0.6723    1.0202    0.1406 C   0  0  0  0  0  0  0  0  0  0  0  0
    1.0898   -0.2970   -0.0284 C   0  0  0  0  0  0  0  0  0  0  0  0
    0.1652   -1.3254   -0.1725 C   0  0  0  0  0  0  0  0  0  0  0  0
   -1.1989   -1.0355   -0.1477 C   0  0  0  0  0  0  0  0  0  0  0  0
    2.4134   -0.6241   -0.0585 O   0  0  0  0  0  0  0  0  0  0  0  0
   -2.6913    0.5072    0.0405 H   0  0  0  0  0  0  0  0  0  0  0  0
   -1.0308    2.3330    0.2965 H   0  0  0  0  0  0  0  0  0  0  0  0
    1.3877    1.8281    0.2537 H   0  0  0  0  0  0  0  0  0  0  0  0
    0.5059   -2.3482   -0.3036 H   0  0  0  0  0  0  0  0  0  0  0  0
   -1.9252   -1.8359   -0.2600 H   0  0  0  0  0  0  0  0  0  0  0  0
    2.9335    0.1882    0.0533 H   0  0  0  0  0  0  0  0  0  0  0  0
  1  2  2  0
  2  3  1  0
  3  4  2  0
  4  5  1  0
  5  6  2  0
  4  7  1  0
  6  1  1  0
  1  8  1  0
  2  9  1  0
  3 10  1  0
  5 11  1  0
  6 12  1  0
  7 13  1  0
M  END
>  <molecule_id>  (1) 
9

>  <conformer_id>  (1) 
0

>  <energy_kcal_mol>  (1) 
5.71326111

$$$$
