
     RDKit          3D

 24 24  0  0  0  0  0  0  0  0999 V2000
    2.6119   -0.4610    0.1128 C   0  0  0  0  0  0  0  0  0  0  0  0
    1.1677   -0.1913   -0.3228 C   0  0  2  0  0  0  0  0  0  0  0  0
    0.6210    1.0897    0.3226 C   0  0  2  0  0  0  0  0  0  0  0  0
   -0.8562    1.2640   -0.0390 C   0  0  1  0  0  0  0  0  0  0  0  0
   -1.6426    0.0036    0.3059 C   0  0  2  0  0  0  0  0  0  0  0  0
   -0.9750   -1.2111   -0.3574 C   0  0  0  0  0  0  0  0  0  0  0  0
    0.3777   -1.3399    0.0544 O   0  0  0  0  0  0  0  0  0  0  0  0
   -1.6814   -2.3734    0.0548 O   0  0  0  0  0  0  0  0  0  0  0  0
   -2.9995    0.1602   -0.1349 O   0  0  0  0  0  0  0  0  0  0  0  0
   -1.3829    2.3944    0.6732 O   0  0  0  0  0  0  0  0  0  0  0  0
    1.3478    2.2382   -0.1156 O   0  0  0  0  0  0  0  0  0  0  0  0
    3.0680   -1.6811   -0.4775 O   0  0  0  0  0  0  0  0  0  0  0  0
    2.6815   -0.5807    1.1991 H   0  0  0  0  0  0  0  0  0  0  0  0
    3.2855    0.3422   -0.1991 H   0  0  0  0  0  0  0  0  0  0  0  0
    1.1543   -0.1145   -1.4183 H   0  0  0  0  0  0  0  0  0  0  0  0
    0.7213    1.0388    1.4143 H   0  0  0  0  0  0  0  0  0  0  0  0
   -0.9635    1.5089   -1.1032 H   0  0  0  0  0  0  0  0  0  0  0  0
   -1.6828   -0.1248    1.3948 H   0  0  0  0  0  0  0  0  0  0  0  0
   -1.0432   -1.1539   -1.4507 H   0  0  0  0  0  0  0  0  0  0  0  0
   -1.2608   -3.1060   -0.4271 H   0  0  0  0  0  0  0  0  0  0  0  0
   -3.4177   -0.7113    0.0201 H   0  0  0  0  0  0  0  0  0  0  0  0
   -2.3525    2.3478    0.5450 H   0  0  0  0  0  0  0  0  0  0  0  0
    0.8322    3.0073    0.2036 H   0  0  0  0  0  0  0  0  0  0  0  0
    2.3891   -2.3460   -0.2552 H   0  0  0  0  0  0  0  0  0  0  0  0
  1  2  1  0
  2  3  1  0
  3  4  1  0
  4  5  1  0
  5  6  1  0
  6  7  1  0
  6  8  1  0
  5  9  1  0
  4 10  1  0
  3 11  1  0
  1 12  1  0
  7  2  1  0
  1 13  1  0
  1 14  1  0
  2 15  1  6
  3 16  1  1
  4 17  1  6
  5 18  1  1
  6 19  1  0
  8 20  1  0
  9 21  1  0
 10 22  1  0
 11 23  1  0
 12 24  1  0
M  END
>  <molecule_id>  (1) 
1

>  <conformer_id>  (1) 
0

>  <energy_kcal_mol>  (1) 
78.58415068

$$$$

     RDKit          3D

 24 24  0  0  0  0  0  0  0  0999 V2000
   -2.4978    0.2077   -0.7096 C   0  0  0  0  0  0  0  0  0  0  0  0
   -1.1589   -0.0380   -0.0048 C   0  0  2  0  0  0  0  0  0  0  0  0
   -0.1526    1.0876   -0.2875 C   0  0  2  0  0  0  0  0  0  0  0  0
    1.1966    0.7257    0.3409 C   0  0  1  0  0  0  0  0  0  0  0  0
    1.6678   -0.6486   -0.1324 C   0  0  2  0  0  0  0  0  0  0  0  0
    0.5672   -1.6935    0.1096 C   0  0  0  0  0  0  0  0  0  0  0  0
   -0.6642   -1.3001   -0.4924 O   0  0  0  0  0  0  0  0  0  0  0  0
    0.3979   -1.9183    1.5037 O   0  0  0  0  0  0  0  0  0  0  0  0
    2.8601   -1.0104    0.5816 O   0  0  0  0  0  0  0  0  0  0  0  0
    2.1863    1.7054   -0.0181 O   0  0  0  0  0  0  0  0  0  0  0  0
   -0.5560    2.3498    0.2539 O   0  0  0  0  0  0  0  0  0  0  0  0
   -3.4068   -0.8527   -0.4166 O   0  0  0  0  0  0  0  0  0  0  0  0
   -2.9606    1.1442   -0.3868 H   0  0  0  0  0  0  0  0  0  0  0  0
   -2.3691    0.2329   -1.7967 H   0  0  0  0  0  0  0  0  0  0  0  0
   -1.3580   -0.1264    1.0711 H   0  0  0  0  0  0  0  0  0  0  0  0
   -0.0135    1.2246   -1.3675 H   0  0  0  0  0  0  0  0  0  0  0  0
    1.1359    0.7582    1.4361 H   0  0  0  0  0  0  0  0  0  0  0  0
    1.9179   -0.6054   -1.1993 H   0  0  0  0  0  0  0  0  0  0  0  0
    0.8678   -2.6502   -0.3298 H   0  0  0  0  0  0  0  0  0  0  0  0
    1.3078   -1.9344    1.8621 H   0  0  0  0  0  0  0  0  0  0  0  0
    3.4456   -0.2288    0.5031 H   0  0  0  0  0  0  0  0  0  0  0  0
    1.7781    2.5666    0.2056 H   0  0  0  0  0  0  0  0  0  0  0  0
   -1.3121    2.6791   -0.2638 H   0  0  0  0  0  0  0  0  0  0  0  0
   -2.8795   -1.6751   -0.4622 H   0  0  0  0  0  0  0  0  0  0  0  0
  1  2  1  0
  2  3  1  0
  3  4  1  0
  4  5  1  0
  5  6  1  0
  6  7  1  0
  6  8  1  0
  5  9  1  0
  4 10  1  0
  3 11  1  0
  1 12  1  0
  7  2  1  0
  1 13  1  0
  1 14  1  0
  2 15  1  1
  3 16  1  6
  4 17  1  1
  5 18  1  6
  6 19  1  0
  8 20  1  0
  9 21  1  0
 10 22  1  0
 11 23  1  0
 12 24  1  0
M  END
>  <molecule_id>  (2) 
1

>  <conformer_id>  (2) 
1

>  <energy_kcal_mol>  (2) 
82.72412208

$$$$

     RDKit          3D

 24 24  0  0  0  0  0  0  0  0999 V2000
    2.6144    0.2565    0.2641 C   0  0  0  0  0  0  0  0  0  0  0  0
    1.2205   -0.0807   -0.2738 C   0  0  2  0  0  0  0  0  0  0  0  0
    0.2245    1.0768   -0.0765 C   0  0  2  0  0  0  0  0  0  0  0  0
   -1.1593    0.6353   -0.5655 C   0  0  1  0  0  0  0  0  0  0  0  0
   -1.5766   -0.6592    0.1262 C   0  0  2  0  0  0  0  0  0  0  0  0
   -0.4846   -1.7244   -0.0770 C   0  0  0  0  0  0  0  0  0  0  0  0
    0.7616   -1.2485    0.4283 O   0  0  0  0  0  0  0  0  0  0  0  0
   -0.8405   -2.9132    0.6183 O   0  0  0  0  0  0  0  0  0  0  0  0
   -2.8323   -1.1200   -0.3900 O   0  0  0  0  0  0  0  0  0  0  0  0
   -2.1355    1.6515   -0.2886 O   0  0  0  0  0  0  0  0  0  0  0  0
    0.6021    2.2469   -0.8077 O   0  0  0  0  0  0  0  0  0  0  0  0
    2.5466    0.5797    1.6515 O   0  0  0  0  0  0  0  0  0  0  0  0
    3.0524    1.1076   -0.2652 H   0  0  0  0  0  0  0  0  0  0  0  0
    3.2879   -0.6004    0.1584 H   0  0  0  0  0  0  0  0  0  0  0  0
    1.3261   -0.3184   -1.3405 H   0  0  0  0  0  0  0  0  0  0  0  0
    0.1427    1.3597    0.9807 H   0  0  0  0  0  0  0  0  0  0  0  0
   -1.1652    0.5083   -1.6553 H   0  0  0  0  0  0  0  0  0  0  0  0
   -1.7324   -0.4797    1.1976 H   0  0  0  0  0  0  0  0  0  0  0  0
   -0.3850   -1.9942   -1.1350 H   0  0  0  0  0  0  0  0  0  0  0  0
   -1.8146   -2.9039    0.6727 H   0  0  0  0  0  0  0  0  0  0  0  0
   -3.4077   -0.3272   -0.3960 H   0  0  0  0  0  0  0  0  0  0  0  0
   -1.7385    2.4829   -0.6191 H   0  0  0  0  0  0  0  0  0  0  0  0
    1.3100    2.6823   -0.2944 H   0  0  0  0  0  0  0  0  0  0  0  0
    2.1832   -0.2175    2.0869 H   0  0  0  0  0  0  0  0  0  0  0  0
  1  2  1  0
  2  3  1  0
  3  4  1  0
  4  5  1  0
  5  6  1  0
  6  7  1  0
  6  8  1  0
  5  9  1  0
  4 10  1  0
  3 11  1  0
  1 12  1  0
  7  2  1  0
  1 13  1  0
  1 14  1  0
  2 15  1  6
  3 16  1  1
  4 17  1  6
  5 18  1  1
  6 19  1  0
  8 20  1  0
  9 21  1  0
 10 22  1  0
 11 23  1  0
 12 24  1  0
M  END
>  <molecule_id>  (3) 
1

>  <conformer_id>  (3) 
10

>  <energy_kcal_mol>  (3) 
82.84584978

$$$$
