
     RDKit          3D

 20 20  0  0  0  0  0  0  0  0999 V2000
   -1.2070   -0.1282   -1.3490 C   0  0  0  0  0  0  0  0  0  0  0  0
   -1.2422    0.8595   -0.1823 C   0  0  2  0  0  0  0  0  0  0  0  0
   -0.3652    0.3470    0.9615 C   0  0  1  0  0  0  0  0  0  0  0  0
    1.0334    0.0169    0.4493 C   0  0  2  0  0  0  0  0  0  0  0  0
    0.9257   -0.9451   -0.7446 C   0  0  0  0  0  0  0  0  0  0  0  0
    0.1311   -0.3915   -1.7820 O   0  0  0  0  0  0  0  0  0  0  0  0
    2.2361   -1.1587   -1.2516 O   0  0  0  0  0  0  0  0  0  0  0  0
    1.8036   -0.5575    1.5162 O   0  0  0  0  0  0  0  0  0  0  0  0
   -0.3006    1.3451    1.9922 O   0  0  0  0  0  0  0  0  0  0  0  0
   -2.5804    1.0347    0.2835 O   0  0  0  0  0  0  0  0  0  0  0  0
   -1.7640    0.2816   -2.1986 H   0  0  0  0  0  0  0  0  0  0  0  0
   -1.7004   -1.0724   -1.0858 H   0  0  0  0  0  0  0  0  0  0  0  0
   -0.8783    1.8402   -0.5123 H   0  0  0  0  0  0  0  0  0  0  0  0
   -0.8232   -0.5328    1.4306 H   0  0  0  0  0  0  0  0  0  0  0  0
    1.5505    0.9390    0.1558 H   0  0  0  0  0  0  0  0  0  0  0  0
    0.5304   -1.9204   -0.4355 H   0  0  0  0  0  0  0  0  0  0  0  0
    2.0996   -1.7053   -2.0449 H   0  0  0  0  0  0  0  0  0  0  0  0
    2.6376   -0.8490    1.0942 H   0  0  0  0  0  0  0  0  0  0  0  0
    0.4102    1.0435    2.5940 H   0  0  0  0  0  0  0  0  0  0  0  0
   -2.4969    1.5533    1.1094 H   0  0  0  0  0  0  0  0  0  0  0  0
  1  2  1  0
  2  3  1  0
  3  4  1  0
  4  5  1  0
  5  6  1  0
  5  7  1  0
  4  8  1  0
  3  9  1  0
  2 10  1  0
  6  1  1  0
  1 11  1  0
  1 12  1  0
  2 13  1  6
  3 14  1  1
  4 15  1  6
  5 16  1  0
  7 17  1  0
  8 18  1  0
  9 19  1  0
 10 20  1  0
M  END
>  <molecule_id>  (1) 
2

>  <conformer_id>  (1) 
0

>  <energy_kcal_mol>  (1) 
62.55955580

$$$$
