
     RDKit          3D

 24 24  0  0  0  0  0  0  0  0999 V2000
    2.9458    0.5513    0.2553 C   0  0  0  0  0  0  0  0  0  0  0  0
    1.9184   -0.5712    0.2225 C   0  0  0  0  0  0  0  0  0  0  0  0
    0.4645   -0.0822    0.3584 C   0  0  0  0  0  0  0  0  0  0  0  0
    0.0382    0.8175   -0.8134 C   0  0  0  0  0  0  0  0  0  0  0  0
   -1.4293    1.2302   -0.7132 C   0  0  0  0  0  0  0  0  0  0  0  0
   -2.3505    0.0224   -0.5870 C   0  0  0  0  0  0  0  0  0  0  0  0
   -1.9422   -0.8684    0.5805 C   0  0  0  0  0  0  0  0  0  0  0  0
   -0.4794   -1.2916    0.4775 C   0  0  0  0  0  0  0  0  0  0  0  0
    2.8256    1.1688    1.1509 H   0  0  0  0  0  0  0  0  0  0  0  0
    2.8664    1.1954   -0.6251 H   0  0  0  0  0  0  0  0  0  0  0  0
    3.9574    0.1326    0.2662 H   0  0  0  0  0  0  0  0  0  0  0  0
    2.0393   -1.1407   -0.7070 H   0  0  0  0  0  0  0  0  0  0  0  0
    2.1421   -1.2611    1.0458 H   0  0  0  0  0  0  0  0  0  0  0  0
    0.3841    0.5016    1.2857 H   0  0  0  0  0  0  0  0  0  0  0  0
    0.6508    1.7253   -0.8410 H   0  0  0  0  0  0  0  0  0  0  0  0
    0.2019    0.2925   -1.7631 H   0  0  0  0  0  0  0  0  0  0  0  0
   -1.5641    1.8845    0.1570 H   0  0  0  0  0  0  0  0  0  0  0  0
   -1.7078    1.8147   -1.5974 H   0  0  0  0  0  0  0  0  0  0  0  0
   -3.3844    0.3590   -0.4509 H   0  0  0  0  0  0  0  0  0  0  0  0
   -2.3226   -0.5578   -1.5175 H   0  0  0  0  0  0  0  0  0  0  0  0
   -2.1017   -0.3320    1.5240 H   0  0  0  0  0  0  0  0  0  0  0  0
   -2.5819   -1.7577    0.6066 H   0  0  0  0  0  0  0  0  0  0  0  0
   -0.2157   -1.8851    1.3612 H   0  0  0  0  0  0  0  0  0  0  0  0
   -0.3549   -1.9476   -0.3938 H   0  0  0  0  0  0  0  0  0  0  0  0
  1  2  1  0
  2  3  1  0
  3  4  1  0
  4  5  1  0
  5  6  1  0
  6  7  1  0
  7  8  1  0
  8  3  1  0
  1  9  1  0
  1 10  1  0
  1 11  1  0
  2 12  1  0
  2 13  1  0
  3 14  1  0
  4 15  1  0
  4 16  1  0
  5 17  1  0
  5 18  1  0
  6 19  1  0
  6 20  1  0
  7 21  1  0
  7 22  1  0
  8 23  1  0
  8 24  1  0
M  END
>  <molecule_id>  (1) 
172

>  <conformer_id>  (1) 
1

>  <energy_kcal_mol>  (1) 
1.43920779

$$$$

     RDKit          3D

 24 24  0  0  0  0  0  0  0  0999 V2000
    2.9680   -0.4281   -0.2420 C   0  0  0  0  0  0  0  0  0  0  0  0
    1.9184    0.6197    0.1000 C   0  0  0  0  0  0  0  0  0  0  0  0
    0.5167    0.0322    0.3480 C   0  0  0  0  0  0  0  0  0  0  0  0
   -0.0619   -0.6482   -0.9037 C   0  0  0  0  0  0  0  0  0  0  0  0
   -1.4847   -1.1548   -0.6730 C   0  0  0  0  0  0  0  0  0  0  0  0
   -2.4070   -0.0480   -0.1757 C   0  0  0  0  0  0  0  0  0  0  0  0
   -1.8465    0.6235    1.0725 C   0  0  0  0  0  0  0  0  0  0  0  0
   -0.4292    1.1408    0.8421 C   0  0  0  0  0  0  0  0  0  0  0  0
    3.0046   -1.2120    0.5209 H   0  0  0  0  0  0  0  0  0  0  0  0
    2.7703   -0.8945   -1.2113 H   0  0  0  0  0  0  0  0  0  0  0  0
    3.9576    0.0372   -0.2968 H   0  0  0  0  0  0  0  0  0  0  0  0
    1.8785    1.3632   -0.7055 H   0  0  0  0  0  0  0  0  0  0  0  0
    2.2486    1.1501    1.0019 H   0  0  0  0  0  0  0  0  0  0  0  0
    0.5967   -0.7225    1.1424 H   0  0  0  0  0  0  0  0  0  0  0  0
    0.5629   -1.4976   -1.2006 H   0  0  0  0  0  0  0  0  0  0  0  0
   -0.0616    0.0580   -1.7437 H   0  0  0  0  0  0  0  0  0  0  0  0
   -1.4655   -1.9708    0.0600 H   0  0  0  0  0  0  0  0  0  0  0  0
   -1.8812   -1.5733   -1.6050 H   0  0  0  0  0  0  0  0  0  0  0  0
   -3.3980   -0.4624    0.0411 H   0  0  0  0  0  0  0  0  0  0  0  0
   -2.5392    0.7009   -0.9663 H   0  0  0  0  0  0  0  0  0  0  0  0
   -1.8434   -0.0923    1.9038 H   0  0  0  0  0  0  0  0  0  0  0  0
   -2.4979    1.4536    1.3684 H   0  0  0  0  0  0  0  0  0  0  0  0
   -0.4588    1.9579    0.1097 H   0  0  0  0  0  0  0  0  0  0  0  0
   -0.0475    1.5674    1.7775 H   0  0  0  0  0  0  0  0  0  0  0  0
  1  2  1  0
  2  3  1  0
  3  4  1  0
  4  5  1  0
  5  6  1  0
  6  7  1  0
  7  8  1  0
  8  3  1  0
  1  9  1  0
  1 10  1  0
  1 11  1  0
  2 12  1  0
  2 13  1  0
  3 14  1  0
  4 15  1  0
  4 16  1  0
  5 17  1  0
  5 18  1  0
  6 19  1  0
  6 20  1  0
  7 21  1  0
  7 22  1  0
  8 23  1  0
  8 24  1  0
M  END
>  <molecule_id>  (2) 
172

>  <conformer_id>  (2) 
3

>  <energy_kcal_mol>  (2) 
1.43920779

$$$$
