
     RDKit          3D

 26 25  0  0  0  0  0  0  0  0999 V2000
   -3.1297   -0.7640   -0.2154 C   0  0  0  0  0  0  0  0  0  0  0  0
   -1.6591   -0.7264    0.2414 C   0  0  2  0  0  0  0  0  0  0  0  0
   -0.9451    0.5388   -0.2849 C   0  0  2  0  0  0  0  0  0  0  0  0
    0.5049    0.7025    0.2253 C   0  0  1  0  0  0  0  0  0  0  0  0
    1.5408   -0.2097   -0.4464 C   0  0  2  0  0  0  0  0  0  0  0  0
    2.9235   -0.0707    0.2031 C   0  0  0  0  0  0  0  0  0  0  0  0
    3.8387   -0.9081   -0.5107 O   0  0  0  0  0  0  0  0  0  0  0  0
    1.6669    0.1908   -1.8262 O   0  0  0  0  0  0  0  0  0  0  0  0
    0.8770    2.0779   -0.0547 O   0  0  0  0  0  0  0  0  0  0  0  0
   -1.6936    1.7025    0.1404 O   0  0  0  0  0  0  0  0  0  0  0  0
   -0.9902   -1.9092   -0.1875 O   0  0  0  0  0  0  0  0  0  0  0  0
   -3.9120    0.2391    0.4198 O   0  0  0  0  0  0  0  0  0  0  0  0
   -3.5766   -1.7353    0.0217 H   0  0  0  0  0  0  0  0  0  0  0  0
   -3.2052   -0.6394   -1.3013 H   0  0  0  0  0  0  0  0  0  0  0  0
   -1.6412   -0.7037    1.3383 H   0  0  0  0  0  0  0  0  0  0  0  0
   -0.9501    0.5502   -1.3812 H   0  0  0  0  0  0  0  0  0  0  0  0
    0.5254    0.5893    1.3150 H   0  0  0  0  0  0  0  0  0  0  0  0
    1.2510   -1.2619   -0.4362 H   0  0  0  0  0  0  0  0  0  0  0  0
    3.2987    0.9550    0.1314 H   0  0  0  0  0  0  0  0  0  0  0  0
    2.9019   -0.3845    1.2509 H   0  0  0  0  0  0  0  0  0  0  0  0
    4.7061   -0.8053   -0.0796 H   0  0  0  0  0  0  0  0  0  0  0  0
    2.4306   -0.3276   -2.1563 H   0  0  0  0  0  0  0  0  0  0  0  0
    1.1563    2.0652   -0.9970 H   0  0  0  0  0  0  0  0  0  0  0  0
   -1.0374    2.4342    0.1262 H   0  0  0  0  0  0  0  0  0  0  0  0
   -1.4912   -2.6703    0.1580 H   0  0  0  0  0  0  0  0  0  0  0  0
   -3.3904    1.0706    0.3570 H   0  0  0  0  0  0  0  0  0  0  0  0
  1  2  1  0
  2  3  1  0
  3  4  1  0
  4  5  1  0
  5  6  1  0
  6  7  1  0
  5  8  1  0
  4  9  1  0
  3 10  1  0
  2 11  1  0
  1 12  1  0
  1 13  1  0
  1 14  1  0
  2 15  1  1
  3 16  1  6
  4 17  1  1
  5 18  1  6
  6 19  1  0
  6 20  1  0
  7 21  1  0
  8 22  1  0
  9 23  1  0
 10 24  1  0
 11 25  1  0
 12 26  1  0
M  END
>  <molecule_id>  (1) 
5

>  <conformer_id>  (1) 
5

>  <energy_kcal_mol>  (1) 
93.94011538

$$$$

     RDKit          3D

 26 25  0  0  0  0  0  0  0  0999 V2000
   -3.0697    0.0021   -0.0973 C   0  0  0  0  0  0  0  0  0  0  0  0
   -1.7599    0.6260    0.3982 C   0  0  2  0  0  0  0  0  0  0  0  0
   -0.4966   -0.0566   -0.1743 C   0  0  2  0  0  0  0  0  0  0  0  0
    0.7520    0.8206    0.0513 C   0  0  1  0  0  0  0  0  0  0  0  0
    2.0762    0.1236   -0.3090 C   0  0  2  0  0  0  0  0  0  0  0  0
    2.4121   -1.0667    0.5889 C   0  0  0  0  0  0  0  0  0  0  0  0
    3.7010   -1.5728    0.2369 O   0  0  0  0  0  0  0  0  0  0  0  0
    3.1516    1.0802   -0.1715 O   0  0  0  0  0  0  0  0  0  0  0  0
    0.6646    1.9845   -0.8059 O   0  0  0  0  0  0  0  0  0  0  0  0
   -0.6181   -0.2790   -1.5870 O   0  0  0  0  0  0  0  0  0  0  0  0
   -1.7256    0.5137    1.8300 O   0  0  0  0  0  0  0  0  0  0  0  0
   -3.0641   -1.3967    0.1957 O   0  0  0  0  0  0  0  0  0  0  0  0
   -3.2004    0.1366   -1.1750 H   0  0  0  0  0  0  0  0  0  0  0  0
   -3.9221    0.4468    0.4270 H   0  0  0  0  0  0  0  0  0  0  0  0
   -1.7734    1.6921    0.1475 H   0  0  0  0  0  0  0  0  0  0  0  0
   -0.3558   -1.0248    0.3182 H   0  0  0  0  0  0  0  0  0  0  0  0
    0.8014    1.1900    1.0817 H   0  0  0  0  0  0  0  0  0  0  0  0
    2.0908   -0.1779   -1.3626 H   0  0  0  0  0  0  0  0  0  0  0  0
    2.4577   -0.7660    1.6406 H   0  0  0  0  0  0  0  0  0  0  0  0
    1.6923   -1.8814    0.4823 H   0  0  0  0  0  0  0  0  0  0  0  0
    4.2563   -0.7740    0.1209 H   0  0  0  0  0  0  0  0  0  0  0  0
    2.7775    1.9241   -0.5013 H   0  0  0  0  0  0  0  0  0  0  0  0
    0.3376    1.6395   -1.6633 H   0  0  0  0  0  0  0  0  0  0  0  0
   -1.1891   -1.0652   -1.6904 H   0  0  0  0  0  0  0  0  0  0  0  0
   -2.0408   -0.3885    2.0366 H   0  0  0  0  0  0  0  0  0  0  0  0
   -3.9553   -1.7303   -0.0182 H   0  0  0  0  0  0  0  0  0  0  0  0
  1  2  1  0
  2  3  1  0
  3  4  1  0
  4  5  1  0
  5  6  1  0
  6  7  1  0
  5  8  1  0
  4  9  1  0
  3 10  1  0
  2 11  1  0
  1 12  1  0
  1 13  1  0
  1 14  1  0
  2 15  1  1
  3 16  1  1
  4 17  1  1
  5 18  1  6
  6 19  1  0
  6 20  1  0
  7 21  1  0
  8 22  1  0
  9 23  1  0
 10 24  1  0
 11 25  1  0
 12 26  1  0
M  END
>  <molecule_id>  (2) 
5

>  <conformer_id>  (2) 
7

>  <energy_kcal_mol>  (2) 
94.49898455

$$$$

     RDKit          3D

 26 25  0  0  0  0  0  0  0  0999 V2000
   -2.0277    1.3916   -0.5661 C   0  0  0  0  0  0  0  0  0  0  0  0
   -1.7750   -0.1178   -0.5534 C   0  0  2  0  0  0  0  0  0  0  0  0
   -0.5625   -0.5240    0.3091 C   0  0  2  0  0  0  0  0  0  0  0  0
    0.8017   -0.1120   -0.2911 C   0  0  1  0  0  0  0  0  0  0  0  0
    2.0232   -0.5109    0.5665 C   0  0  2  0  0  0  0  0  0  0  0  0
    2.1476    0.2622    1.8817 C   0  0  0  0  0  0  0  0  0  0  0  0
    1.1152   -0.0456    2.8067 O   0  0  0  0  0  0  0  0  0  0  0  0
    3.2078   -0.2608   -0.2116 O   0  0  0  0  0  0  0  0  0  0  0  0
    0.9983   -0.7630   -1.5727 O   0  0  0  0  0  0  0  0  0  0  0  0
   -0.5793   -1.9563    0.4471 O   0  0  0  0  0  0  0  0  0  0  0  0
   -1.5850   -0.5581   -1.9141 O   0  0  0  0  0  0  0  0  0  0  0  0
   -3.1625    1.6403   -1.4005 O   0  0  0  0  0  0  0  0  0  0  0  0
   -1.1853    1.9378   -0.9995 H   0  0  0  0  0  0  0  0  0  0  0  0
   -2.2362    1.7679    0.4397 H   0  0  0  0  0  0  0  0  0  0  0  0
   -2.6715   -0.6399   -0.1976 H   0  0  0  0  0  0  0  0  0  0  0  0
   -0.7041   -0.1017    1.3058 H   0  0  0  0  0  0  0  0  0  0  0  0
    0.8350    0.9651   -0.4860 H   0  0  0  0  0  0  0  0  0  0  0  0
    2.0020   -1.5886    0.7646 H   0  0  0  0  0  0  0  0  0  0  0  0
    3.1110    0.0488    2.3585 H   0  0  0  0  0  0  0  0  0  0  0  0
    2.1299    1.3413    1.6933 H   0  0  0  0  0  0  0  0  0  0  0  0
    1.1685   -1.0015    2.9925 H   0  0  0  0  0  0  0  0  0  0  0  0
    2.9762   -0.5827   -1.1089 H   0  0  0  0  0  0  0  0  0  0  0  0
    0.1418   -0.6971   -2.0532 H   0  0  0  0  0  0  0  0  0  0  0  0
   -0.4709   -2.3078   -0.4597 H   0  0  0  0  0  0  0  0  0  0  0  0
   -2.3576   -0.1846   -2.3920 H   0  0  0  0  0  0  0  0  0  0  0  0
   -3.3409    2.5974   -1.3590 H   0  0  0  0  0  0  0  0  0  0  0  0
  1  2  1  0
  2  3  1  0
  3  4  1  0
  4  5  1  0
  5  6  1  0
  6  7  1  0
  5  8  1  0
  4  9  1  0
  3 10  1  0
  2 11  1  0
  1 12  1  0
  1 13  1  0
  1 14  1  0
  2 15  1  1
  3 16  1  1
  4 17  1  6
  5 18  1  1
  6 19  1  0
  6 20  1  0
  7 21  1  0
  8 22  1  0
  9 23  1  0
 10 24  1  0
 11 25  1  0
 12 26  1  0
M  END
>  <molecule_id>  (3) 
5

>  <conformer_id>  (3) 
9

>  <energy_kcal_mol>  (3) 
91.73593443

$$$$

     RDKit          3D

 26 25  0  0  0  0  0  0  0  0999 V2000
    2.9857    0.2954    0.1492 C   0  0  0  0  0  0  0  0  0  0  0  0
    1.6112    0.0938    0.7980 C   0  0  2  0  0  0  0  0  0  0  0  0
    0.5155   -0.1748   -0.2489 C   0  0  2  0  0  0  0  0  0  0  0  0
   -0.8359   -0.5082    0.4081 C   0  0  1  0  0  0  0  0  0  0  0  0
   -1.9959   -0.6633   -0.5977 C   0  0  2  0  0  0  0  0  0  0  0  0
   -2.3215    0.5971   -1.4004 C   0  0  0  0  0  0  0  0  0  0  0  0
   -2.6840    1.6412   -0.4969 O   0  0  0  0  0  0  0  0  0  0  0  0
   -3.1660   -1.0243    0.1723 O   0  0  0  0  0  0  0  0  0  0  0  0
   -0.6941   -1.7884    1.0736 O   0  0  0  0  0  0  0  0  0  0  0  0
    0.8957   -1.2756   -1.0879 O   0  0  0  0  0  0  0  0  0  0  0  0
    1.2946    1.2779    1.5452 O   0  0  0  0  0  0  0  0  0  0  0  0
    3.9222    0.6428    1.1766 O   0  0  0  0  0  0  0  0  0  0  0  0
    2.9635    1.1242   -0.5657 H   0  0  0  0  0  0  0  0  0  0  0  0
    3.3345   -0.6134   -0.3499 H   0  0  0  0  0  0  0  0  0  0  0  0
    1.6827   -0.7328    1.5147 H   0  0  0  0  0  0  0  0  0  0  0  0
    0.4156    0.7141   -0.8799 H   0  0  0  0  0  0  0  0  0  0  0  0
   -1.0974    0.2238    1.1803 H   0  0  0  0  0  0  0  0  0  0  0  0
   -1.8043   -1.5028   -1.2748 H   0  0  0  0  0  0  0  0  0  0  0  0
   -3.1858    0.4151   -2.0475 H   0  0  0  0  0  0  0  0  0  0  0  0
   -1.4812    0.9259   -2.0168 H   0  0  0  0  0  0  0  0  0  0  0  0
   -2.8665    2.4323   -1.0356 H   0  0  0  0  0  0  0  0  0  0  0  0
   -3.5000   -0.1762    0.5324 H   0  0  0  0  0  0  0  0  0  0  0  0
   -1.6116   -2.0456    1.3046 H   0  0  0  0  0  0  0  0  0  0  0  0
    0.7164   -2.0731   -0.5444 H   0  0  0  0  0  0  0  0  0  0  0  0
    2.1156    1.4753    2.0420 H   0  0  0  0  0  0  0  0  0  0  0  0
    4.7909    0.7194    0.7435 H   0  0  0  0  0  0  0  0  0  0  0  0
  1  2  1  0
  2  3  1  0
  3  4  1  0
  4  5  1  0
  5  6  1  0
  6  7  1  0
  5  8  1  0
  4  9  1  0
  3 10  1  0
  2 11  1  0
  1 12  1  0
  1 13  1  0
  1 14  1  0
  2 15  1  1
  3 16  1  6
  4 17  1  1
  5 18  1  6
  6 19  1  0
  6 20  1  0
  7 21  1  0
  8 22  1  0
  9 23  1  0
 10 24  1  0
 11 25  1  0
 12 26  1  0
M  END
>  <molecule_id>  (4) 
5

>  <conformer_id>  (4) 
10

>  <energy_kcal_mol>  (4) 
90.55572658

$$$$

     RDKit          3D

 26 25  0  0  0  0  0  0  0  0999 V2000
   -2.2104    0.1116    0.9296 C   0  0  0  0  0  0  0  0  0  0  0  0
   -1.6538   -0.7144   -0.2348 C   0  0  2  0  0  0  0  0  0  0  0  0
   -0.7398    0.0745   -1.1837 C   0  0  2  0  0  0  0  0  0  0  0  0
    0.4976    0.7314   -0.5389 C   0  0  1  0  0  0  0  0  0  0  0  0
    1.4375   -0.2555    0.1672 C   0  0  2  0  0  0  0  0  0  0  0  0
    2.6115    0.4518    0.8584 C   0  0  0  0  0  0  0  0  0  0  0  0
    3.4084   -0.5062    1.5552 O   0  0  0  0  0  0  0  0  0  0  0  0
    1.9564   -1.1942   -0.7910 O   0  0  0  0  0  0  0  0  0  0  0  0
    1.2142    1.4080   -1.5946 O   0  0  0  0  0  0  0  0  0  0  0  0
   -1.5350    1.1087   -1.8062 O   0  0  0  0  0  0  0  0  0  0  0  0
   -2.7882   -1.1954   -0.9872 O   0  0  0  0  0  0  0  0  0  0  0  0
   -3.0374   -0.7229    1.7419 O   0  0  0  0  0  0  0  0  0  0  0  0
   -1.4155    0.5104    1.5646 H   0  0  0  0  0  0  0  0  0  0  0  0
   -2.8339    0.9382    0.5746 H   0  0  0  0  0  0  0  0  0  0  0  0
   -1.1460   -1.6043    0.1504 H   0  0  0  0  0  0  0  0  0  0  0  0
   -0.4343   -0.5780   -2.0108 H   0  0  0  0  0  0  0  0  0  0  0  0
    0.1807    1.5171    0.1555 H   0  0  0  0  0  0  0  0  0  0  0  0
    0.8946   -0.8412    0.9158 H   0  0  0  0  0  0  0  0  0  0  0  0
    2.2590    1.1919    1.5827 H   0  0  0  0  0  0  0  0  0  0  0  0
    3.2642    0.9482    0.1334 H   0  0  0  0  0  0  0  0  0  0  0  0
    3.3789   -1.3403    1.0501 H   0  0  0  0  0  0  0  0  0  0  0  0
    2.7555   -0.8052   -1.1928 H   0  0  0  0  0  0  0  0  0  0  0  0
    1.4453    0.7322   -2.2601 H   0  0  0  0  0  0  0  0  0  0  0  0
   -0.8977    1.7303   -2.2139 H   0  0  0  0  0  0  0  0  0  0  0  0
   -3.0365   -0.4516   -1.5756 H   0  0  0  0  0  0  0  0  0  0  0  0
   -3.5753   -1.2451    1.1126 H   0  0  0  0  0  0  0  0  0  0  0  0
  1  2  1  0
  2  3  1  0
  3  4  1  0
  4  5  1  0
  5  6  1  0
  6  7  1  0
  5  8  1  0
  4  9  1  0
  3 10  1  0
  2 11  1  0
  1 12  1  0
  1 13  1  0
  1 14  1  0
  2 15  1  1
  3 16  1  6
  4 17  1  1
  5 18  1  1
  6 19  1  0
  6 20  1  0
  7 21  1  0
  8 22  1  0
  9 23  1  0
 10 24  1  0
 11 25  1  0
 12 26  1  0
M  END
>  <molecule_id>  (5) 
5

>  <conformer_id>  (5) 
11

>  <energy_kcal_mol>  (5) 
94.18068573

$$$$

     RDKit          3D

 26 25  0  0  0  0  0  0  0  0999 V2000
    3.0473   -0.1811    0.2944 C   0  0  0  0  0  0  0  0  0  0  0  0
    1.7410   -0.9121   -0.0437 C   0  0  2  0  0  0  0  0  0  0  0  0
    0.5363    0.0611   -0.0616 C   0  0  2  0  0  0  0  0  0  0  0  0
   -0.8254   -0.6669   -0.0611 C   0  0  1  0  0  0  0  0  0  0  0  0
   -2.0019    0.1859   -0.5739 C   0  0  2  0  0  0  0  0  0  0  0  0
   -2.2262    1.4807    0.2083 C   0  0  0  0  0  0  0  0  0  0  0  0
   -2.5069    1.1572    1.5729 O   0  0  0  0  0  0  0  0  0  0  0  0
   -3.1897   -0.6325   -0.4603 O   0  0  0  0  0  0  0  0  0  0  0  0
   -0.7613   -1.8684   -0.8626 O   0  0  0  0  0  0  0  0  0  0  0  0
    0.6307    0.9411   -1.1937 O   0  0  0  0  0  0  0  0  0  0  0  0
    1.5552   -1.9723    0.8939 O   0  0  0  0  0  0  0  0  0  0  0  0
    3.2759    0.9042   -0.6036 O   0  0  0  0  0  0  0  0  0  0  0  0
    3.8917   -0.8767    0.2328 H   0  0  0  0  0  0  0  0  0  0  0  0
    3.0190    0.2091    1.3178 H   0  0  0  0  0  0  0  0  0  0  0  0
    1.8593   -1.3503   -1.0433 H   0  0  0  0  0  0  0  0  0  0  0  0
    0.5685    0.6994    0.8300 H   0  0  0  0  0  0  0  0  0  0  0  0
   -1.0386   -1.0248    0.9537 H   0  0  0  0  0  0  0  0  0  0  0  0
   -1.8823    0.4003   -1.6413 H   0  0  0  0  0  0  0  0  0  0  0  0
   -1.3607    2.1470    0.1699 H   0  0  0  0  0  0  0  0  0  0  0  0
   -3.1011    2.0082   -0.1854 H   0  0  0  0  0  0  0  0  0  0  0  0
   -2.6678    2.0024    2.0305 H   0  0  0  0  0  0  0  0  0  0  0  0
   -3.4630   -0.5476    0.4764 H   0  0  0  0  0  0  0  0  0  0  0  0
   -1.6948   -2.0665   -1.0880 H   0  0  0  0  0  0  0  0  0  0  0  0
    1.5793    1.1905   -1.2650 H   0  0  0  0  0  0  0  0  0  0  0  0
    0.8456   -2.5270    0.5072 H   0  0  0  0  0  0  0  0  0  0  0  0
    4.1698    1.2391   -0.4042 H   0  0  0  0  0  0  0  0  0  0  0  0
  1  2  1  0
  2  3  1  0
  3  4  1  0
  4  5  1  0
  5  6  1  0
  6  7  1  0
  5  8  1  0
  4  9  1  0
  3 10  1  0
  2 11  1  0
  1 12  1  0
  1 13  1  0
  1 14  1  0
  2 15  1  6
  3 16  1  1
  4 17  1  1
  5 18  1  6
  6 19  1  0
  6 20  1  0
  7 21  1  0
  8 22  1  0
  9 23  1  0
 10 24  1  0
 11 25  1  0
 12 26  1  0
M  END
>  <molecule_id>  (6) 
5

>  <conformer_id>  (6) 
12

>  <energy_kcal_mol>  (6) 
94.59634851

$$$$

     RDKit          3D

 26 25  0  0  0  0  0  0  0  0999 V2000
    2.3406    1.1752    0.5258 C   0  0  0  0  0  0  0  0  0  0  0  0
    2.1402    0.0578   -0.5033 C   0  0  2  0  0  0  0  0  0  0  0  0
    0.8324   -0.7440   -0.3814 C   0  0  2  0  0  0  0  0  0  0  0  0
   -0.4535    0.0822   -0.6184 C   0  0  1  0  0  0  0  0  0  0  0  0
   -1.6998   -0.8345   -0.6649 C   0  0  2  0  0  0  0  0  0  0  0  0
   -2.9797   -0.0836   -1.0594 C   0  0  0  0  0  0  0  0  0  0  0  0
   -3.1883    1.0217   -0.1751 O   0  0  0  0  0  0  0  0  0  0  0  0
   -1.8934   -1.4079    0.6400 O   0  0  0  0  0  0  0  0  0  0  0  0
   -0.6119    1.0458    0.4309 O   0  0  0  0  0  0  0  0  0  0  0  0
    0.8425   -1.4069    0.8972 O   0  0  0  0  0  0  0  0  0  0  0  0
    3.2409   -0.8677   -0.3291 O   0  0  0  0  0  0  0  0  0  0  0  0
    3.6549    1.7247    0.3578 O   0  0  0  0  0  0  0  0  0  0  0  0
    1.6293    1.9927    0.3954 H   0  0  0  0  0  0  0  0  0  0  0  0
    2.2786    0.7968    1.5506 H   0  0  0  0  0  0  0  0  0  0  0  0
    2.2434    0.4691   -1.5135 H   0  0  0  0  0  0  0  0  0  0  0  0
    0.8712   -1.5494   -1.1257 H   0  0  0  0  0  0  0  0  0  0  0  0
   -0.3626    0.6251   -1.5663 H   0  0  0  0  0  0  0  0  0  0  0  0
   -1.5407   -1.6590   -1.3682 H   0  0  0  0  0  0  0  0  0  0  0  0
   -2.9087    0.3006   -2.0813 H   0  0  0  0  0  0  0  0  0  0  0  0
   -3.8478   -0.7454   -0.9758 H   0  0  0  0  0  0  0  0  0  0  0  0
   -4.0787    1.3708   -0.3714 H   0  0  0  0  0  0  0  0  0  0  0  0
   -2.1065   -0.6483    1.2229 H   0  0  0  0  0  0  0  0  0  0  0  0
   -1.5152    1.4217    0.3425 H   0  0  0  0  0  0  0  0  0  0  0  0
   -0.0852   -1.6624    1.0886 H   0  0  0  0  0  0  0  0  0  0  0  0
    2.9686   -1.4252    0.4311 H   0  0  0  0  0  0  0  0  0  0  0  0
    4.2293    0.9501    0.1912 H   0  0  0  0  0  0  0  0  0  0  0  0
  1  2  1  0
  2  3  1  0
  3  4  1  0
  4  5  1  0
  5  6  1  0
  6  7  1  0
  5  8  1  0
  4  9  1  0
  3 10  1  0
  2 11  1  0
  1 12  1  0
  1 13  1  0
  1 14  1  0
  2 15  1  6
  3 16  1  6
  4 17  1  6
  5 18  1  6
  6 19  1  0
  6 20  1  0
  7 21  1  0
  8 22  1  0
  9 23  1  0
 10 24  1  0
 11 25  1  0
 12 26  1  0
M  END
>  <molecule_id>  (7) 
5

>  <conformer_id>  (7) 
15

>  <energy_kcal_mol>  (7) 
92.04992211

$$$$

     RDKit          3D

 26 25  0  0  0  0  0  0  0  0999 V2000
   -3.1925   -0.5562    0.3327 C   0  0  0  0  0  0  0  0  0  0  0  0
   -1.8761    0.1487    0.6800 C   0  0  2  0  0  0  0  0  0  0  0  0
   -0.6845   -0.4336   -0.0947 C   0  0  2  0  0  0  0  0  0  0  0  0
    0.6138    0.3635    0.1770 C   0  0  1  0  0  0  0  0  0  0  0  0
    1.8477   -0.3597   -0.3935 C   0  0  2  0  0  0  0  0  0  0  0  0
    3.1309    0.4607   -0.2342 C   0  0  0  0  0  0  0  0  0  0  0  0
    4.2057   -0.2901   -0.8111 O   0  0  0  0  0  0  0  0  0  0  0  0
    1.6576   -0.6329   -1.7987 O   0  0  0  0  0  0  0  0  0  0  0  0
    0.5003    1.6568   -0.4430 O   0  0  0  0  0  0  0  0  0  0  0  0
   -0.9705   -0.4140   -1.5034 O   0  0  0  0  0  0  0  0  0  0  0  0
   -1.6516    0.0106    2.0923 O   0  0  0  0  0  0  0  0  0  0  0  0
   -4.2382    0.0057    1.1366 O   0  0  0  0  0  0  0  0  0  0  0  0
   -3.4634   -0.4488   -0.7218 H   0  0  0  0  0  0  0  0  0  0  0  0
   -3.1394   -1.6209    0.5813 H   0  0  0  0  0  0  0  0  0  0  0  0
   -1.9903    1.2196    0.4748 H   0  0  0  0  0  0  0  0  0  0  0  0
   -0.5361   -1.4771    0.2098 H   0  0  0  0  0  0  0  0  0  0  0  0
    0.7595    0.5214    1.2509 H   0  0  0  0  0  0  0  0  0  0  0  0
    1.9702   -1.3345    0.0928 H   0  0  0  0  0  0  0  0  0  0  0  0
    3.0725    1.4086   -0.7778 H   0  0  0  0  0  0  0  0  0  0  0  0
    3.3548    0.6493    0.8199 H   0  0  0  0  0  0  0  0  0  0  0  0
    5.0121    0.2426   -0.6867 H   0  0  0  0  0  0  0  0  0  0  0  0
    2.5570   -0.8667   -2.1164 H   0  0  0  0  0  0  0  0  0  0  0  0
    0.1929    1.4773   -1.3547 H   0  0  0  0  0  0  0  0  0  0  0  0
   -0.1400   -0.7011   -1.9483 H   0  0  0  0  0  0  0  0  0  0  0  0
   -2.5370    0.0986    2.5017 H   0  0  0  0  0  0  0  0  0  0  0  0
   -4.4555    0.8721    0.7476 H   0  0  0  0  0  0  0  0  0  0  0  0
  1  2  1  0
  2  3  1  0
  3  4  1  0
  4  5  1  0
  5  6  1  0
  6  7  1  0
  5  8  1  0
  4  9  1  0
  3 10  1  0
  2 11  1  0
  1 12  1  0
  1 13  1  0
  1 14  1  0
  2 15  1  1
  3 16  1  1
  4 17  1  1
  5 18  1  1
  6 19  1  0
  6 20  1  0
  7 21  1  0
  8 22  1  0
  9 23  1  0
 10 24  1  0
 11 25  1  0
 12 26  1  0
M  END
>  <molecule_id>  (8) 
5

>  <conformer_id>  (8) 
22

>  <energy_kcal_mol>  (8) 
90.34677335

$$$$
