
     RDKit          3D

 13 13  0  0  0  0  0  0  0  0999 V2000
   -1.5972    0.6953   -0.9491 C   0  0  0  0  0  0  0  0  0  0  0  0
   -1.8358    0.2676    0.3357 C   0  0  0  0  0  0  0  0  0  0  0  0
   -0.7114   -0.2699    0.8751 O   0  0  0  0  0  0  0  0  0  0  0  0
    0.2641   -0.1893   -0.0776 C   0  0  0  0  0  0  0  0  0  0  0  0
   -0.2383    0.4020   -1.2176 C   0  0  0  0  0  0  0  0  0  0  0  0
    1.5932   -0.7196    0.2996 C   0  0  0  0  0  0  0  0  0  0  0  0
    2.0732    0.0538    1.3927 O   0  0  0  0  0  0  0  0  0  0  0  0
   -2.3142    1.1638   -1.6084 H   0  0  0  0  0  0  0  0  0  0  0  0
   -2.7054    0.2747    0.9782 H   0  0  0  0  0  0  0  0  0  0  0  0
    0.3112    0.6004   -2.1274 H   0  0  0  0  0  0  0  0  0  0  0  0
    1.5270   -1.7669    0.6087 H   0  0  0  0  0  0  0  0  0  0  0  0
    2.3082   -0.6390   -0.5239 H   0  0  0  0  0  0  0  0  0  0  0  0
    1.3254    0.1271    2.0139 H   0  0  0  0  0  0  0  0  0  0  0  0
  1  2  2  0
  2  3  1  0
  3  4  1  0
  4  5  2  0
  4  6  1  0
  6  7  1  0
  5  1  1  0
  1  8  1  0
  2  9  1  0
  5 10  1  0
  6 11  1  0
  6 12  1  0
  7 13  1  0
M  END
>  <molecule_id>  (1) 
7

>  <conformer_id>  (1) 
0

>  <energy_kcal_mol>  (1) 
5.42087300

$$$$

     RDKit          3D

 13 13  0  0  0  0  0  0  0  0999 V2000
   -1.9259    0.3596   -0.3108 C   0  0  0  0  0  0  0  0  0  0  0  0
   -1.6545   -0.8730    0.2346 C   0  0  0  0  0  0  0  0  0  0  0  0
   -0.3271   -0.9976    0.4925 O   0  0  0  0  0  0  0  0  0  0  0  0
    0.2637    0.1731    0.1101 C   0  0  0  0  0  0  0  0  0  0  0  0
   -0.6856    1.0373   -0.3938 C   0  0  0  0  0  0  0  0  0  0  0  0
    1.7289    0.2597    0.2993 C   0  0  0  0  0  0  0  0  0  0  0  0
    2.3295   -0.7442   -0.5099 O   0  0  0  0  0  0  0  0  0  0  0  0
   -2.8979    0.7223   -0.6141 H   0  0  0  0  0  0  0  0  0  0  0  0
   -2.2625   -1.7304    0.4879 H   0  0  0  0  0  0  0  0  0  0  0  0
   -0.5023    2.0314   -0.7775 H   0  0  0  0  0  0  0  0  0  0  0  0
    2.1185    1.2338   -0.0087 H   0  0  0  0  0  0  0  0  0  0  0  0
    2.0029    0.0837    1.3436 H   0  0  0  0  0  0  0  0  0  0  0  0
    1.8123   -1.5555   -0.3532 H   0  0  0  0  0  0  0  0  0  0  0  0
  1  2  2  0
  2  3  1  0
  3  4  1  0
  4  5  2  0
  4  6  1  0
  6  7  1  0
  5  1  1  0
  1  8  1  0
  2  9  1  0
  5 10  1  0
  6 11  1  0
  6 12  1  0
  7 13  1  0
M  END
>  <molecule_id>  (2) 
7

>  <conformer_id>  (2) 
1

>  <energy_kcal_mol>  (2) 
5.42087300

$$$$
